* NGSPICE file created from mgmt_protect.ext - technology: sky130A

.subckt sky130_fd_sc_hd__decap_12 VGND VPWR VNB VPB
X0 VPWR VGND VPWR VPB sky130_fd_pr__pfet_01v8_hvt ad=4.524e+11p pd=4.52e+06u as=0p ps=0u w=870000u l=4.73e+06u
X1 VGND VPWR VGND VNB sky130_fd_pr__nfet_01v8 ad=2.86e+11p pd=3.24e+06u as=0p ps=0u w=550000u l=4.73e+06u
.ends

.subckt sky130_fd_sc_hd__decap_8 VGND VPWR VNB VPB
X0 VPWR VGND VPWR VPB sky130_fd_pr__pfet_01v8_hvt ad=4.524e+11p pd=4.52e+06u as=0p ps=0u w=870000u l=2.89e+06u
X1 VGND VPWR VGND VNB sky130_fd_pr__nfet_01v8 ad=2.86e+11p pd=3.24e+06u as=0p ps=0u w=550000u l=2.89e+06u
.ends

.subckt sky130_fd_sc_hd__diode_2 DIODE VGND VPB VPWR VNB
D0 VNB DIODE sky130_fd_pr__diode_pw2nd_05v5 pj=2.64e+06u area=4.347e+11p
.ends

.subckt sky130_fd_sc_hd__and2_1 A B VGND VPWR X VNB VPB
X0 VPWR B a_59_75# VPB sky130_fd_pr__pfet_01v8_hvt ad=4.507e+11p pd=4.18e+06u as=1.134e+11p ps=1.38e+06u w=420000u l=150000u
X1 X a_59_75# VPWR VPB sky130_fd_pr__pfet_01v8_hvt ad=4.75e+11p pd=2.95e+06u as=0p ps=0u w=1e+06u l=150000u
X2 VGND B a_145_75# VNB sky130_fd_pr__nfet_01v8 ad=2.236e+11p pd=2.08e+06u as=1.134e+11p ps=1.38e+06u w=420000u l=150000u
X3 a_59_75# A VPWR VPB sky130_fd_pr__pfet_01v8_hvt ad=0p pd=0u as=0p ps=0u w=420000u l=150000u
X4 X a_59_75# VGND VNB sky130_fd_pr__nfet_01v8 ad=1.82e+11p pd=1.86e+06u as=0p ps=0u w=650000u l=150000u
X5 a_145_75# A a_59_75# VNB sky130_fd_pr__nfet_01v8 ad=0p pd=0u as=1.176e+11p ps=1.4e+06u w=420000u l=150000u
.ends

.subckt sky130_fd_sc_hd__decap_4 VGND VPWR VNB VPB
X0 VPWR VGND VPWR VPB sky130_fd_pr__pfet_01v8_hvt ad=4.524e+11p pd=4.52e+06u as=0p ps=0u w=870000u l=1.05e+06u
X1 VGND VPWR VGND VNB sky130_fd_pr__nfet_01v8 ad=2.86e+11p pd=3.24e+06u as=0p ps=0u w=550000u l=1.05e+06u
.ends

.subckt sky130_fd_sc_hd__inv_2 A VGND VPWR Y VNB VPB
X0 Y A VPWR VPB sky130_fd_pr__pfet_01v8_hvt ad=2.7e+11p pd=2.54e+06u as=5.2e+11p ps=5.04e+06u w=1e+06u l=150000u
X1 VGND A Y VNB sky130_fd_pr__nfet_01v8 ad=3.38e+11p pd=3.64e+06u as=1.755e+11p ps=1.84e+06u w=650000u l=150000u
X2 Y A VGND VNB sky130_fd_pr__nfet_01v8 ad=0p pd=0u as=0p ps=0u w=650000u l=150000u
X3 VPWR A Y VPB sky130_fd_pr__pfet_01v8_hvt ad=0p pd=0u as=0p ps=0u w=1e+06u l=150000u
.ends

.subckt sky130_fd_sc_hd__and2b_1 A_N B VGND VPWR X VNB VPB
X0 VPWR B a_207_413# VPB sky130_fd_pr__pfet_01v8_hvt ad=5.986e+11p pd=5e+06u as=1.218e+11p ps=1.42e+06u w=420000u l=150000u
X1 X a_207_413# VPWR VPB sky130_fd_pr__pfet_01v8_hvt ad=2.6e+11p pd=2.52e+06u as=0p ps=0u w=1e+06u l=150000u
X2 a_297_47# a_27_413# a_207_413# VNB sky130_fd_pr__nfet_01v8 ad=1.008e+11p pd=1.32e+06u as=1.092e+11p ps=1.36e+06u w=420000u l=150000u
X3 X a_207_413# VGND VNB sky130_fd_pr__nfet_01v8 ad=1.69e+11p pd=1.82e+06u as=3.118e+11p ps=3.34e+06u w=650000u l=150000u
X4 a_207_413# a_27_413# VPWR VPB sky130_fd_pr__pfet_01v8_hvt ad=0p pd=0u as=0p ps=0u w=420000u l=150000u
X5 VPWR A_N a_27_413# VPB sky130_fd_pr__pfet_01v8_hvt ad=0p pd=0u as=1.092e+11p ps=1.36e+06u w=420000u l=150000u
X6 VGND B a_297_47# VNB sky130_fd_pr__nfet_01v8 ad=0p pd=0u as=0p ps=0u w=420000u l=150000u
X7 a_27_413# A_N VGND VNB sky130_fd_pr__nfet_01v8 ad=1.092e+11p pd=1.36e+06u as=0p ps=0u w=420000u l=150000u
.ends

.subckt sky130_fd_sc_hd__einvp_8 A TE VGND VPWR Z VNB VPB
X0 VPWR a_27_47# a_215_309# VPB sky130_fd_pr__pfet_01v8_hvt ad=1.2752e+12p pd=1.22e+07u as=2.3963e+12p ps=2.245e+07u w=940000u l=150000u
X1 a_215_309# A Z VPB sky130_fd_pr__pfet_01v8_hvt ad=0p pd=0u as=1.08e+12p ps=1.016e+07u w=1e+06u l=150000u
X2 a_193_47# A Z VNB sky130_fd_pr__nfet_01v8 ad=1.5925e+12p pd=1.66e+07u as=7.02e+11p ps=7.36e+06u w=650000u l=150000u
X3 a_215_309# a_27_47# VPWR VPB sky130_fd_pr__pfet_01v8_hvt ad=0p pd=0u as=0p ps=0u w=940000u l=150000u
X4 Z A a_215_309# VPB sky130_fd_pr__pfet_01v8_hvt ad=0p pd=0u as=0p ps=0u w=1e+06u l=150000u
X5 VGND TE a_193_47# VNB sky130_fd_pr__nfet_01v8 ad=8.84e+11p pd=9.22e+06u as=0p ps=0u w=650000u l=150000u
X6 a_215_309# A Z VPB sky130_fd_pr__pfet_01v8_hvt ad=0p pd=0u as=0p ps=0u w=1e+06u l=150000u
X7 VPWR a_27_47# a_215_309# VPB sky130_fd_pr__pfet_01v8_hvt ad=0p pd=0u as=0p ps=0u w=940000u l=150000u
X8 a_215_309# a_27_47# VPWR VPB sky130_fd_pr__pfet_01v8_hvt ad=0p pd=0u as=0p ps=0u w=940000u l=150000u
X9 Z A a_215_309# VPB sky130_fd_pr__pfet_01v8_hvt ad=0p pd=0u as=0p ps=0u w=1e+06u l=150000u
X10 a_193_47# TE VGND VNB sky130_fd_pr__nfet_01v8 ad=0p pd=0u as=0p ps=0u w=650000u l=150000u
X11 Z A a_193_47# VNB sky130_fd_pr__nfet_01v8 ad=0p pd=0u as=0p ps=0u w=650000u l=150000u
X12 a_193_47# TE VGND VNB sky130_fd_pr__nfet_01v8 ad=0p pd=0u as=0p ps=0u w=650000u l=150000u
X13 a_193_47# TE VGND VNB sky130_fd_pr__nfet_01v8 ad=0p pd=0u as=0p ps=0u w=650000u l=150000u
X14 a_193_47# TE VGND VNB sky130_fd_pr__nfet_01v8 ad=0p pd=0u as=0p ps=0u w=650000u l=150000u
X15 a_193_47# A Z VNB sky130_fd_pr__nfet_01v8 ad=0p pd=0u as=0p ps=0u w=650000u l=150000u
X16 a_193_47# A Z VNB sky130_fd_pr__nfet_01v8 ad=0p pd=0u as=0p ps=0u w=650000u l=150000u
X17 a_193_47# A Z VNB sky130_fd_pr__nfet_01v8 ad=0p pd=0u as=0p ps=0u w=650000u l=150000u
X18 a_215_309# A Z VPB sky130_fd_pr__pfet_01v8_hvt ad=0p pd=0u as=0p ps=0u w=1e+06u l=150000u
X19 VGND TE a_193_47# VNB sky130_fd_pr__nfet_01v8 ad=0p pd=0u as=0p ps=0u w=650000u l=150000u
X20 VPWR a_27_47# a_215_309# VPB sky130_fd_pr__pfet_01v8_hvt ad=0p pd=0u as=0p ps=0u w=940000u l=150000u
X21 VGND TE a_193_47# VNB sky130_fd_pr__nfet_01v8 ad=0p pd=0u as=0p ps=0u w=650000u l=150000u
X22 VGND TE a_193_47# VNB sky130_fd_pr__nfet_01v8 ad=0p pd=0u as=0p ps=0u w=650000u l=150000u
X23 Z A a_215_309# VPB sky130_fd_pr__pfet_01v8_hvt ad=0p pd=0u as=0p ps=0u w=1e+06u l=150000u
X24 Z A a_193_47# VNB sky130_fd_pr__nfet_01v8 ad=0p pd=0u as=0p ps=0u w=650000u l=150000u
X25 a_215_309# a_27_47# VPWR VPB sky130_fd_pr__pfet_01v8_hvt ad=0p pd=0u as=0p ps=0u w=940000u l=150000u
X26 Z A a_215_309# VPB sky130_fd_pr__pfet_01v8_hvt ad=0p pd=0u as=0p ps=0u w=1e+06u l=150000u
X27 a_215_309# A Z VPB sky130_fd_pr__pfet_01v8_hvt ad=0p pd=0u as=0p ps=0u w=1e+06u l=150000u
X28 Z A a_193_47# VNB sky130_fd_pr__nfet_01v8 ad=0p pd=0u as=0p ps=0u w=650000u l=150000u
X29 VPWR a_27_47# a_215_309# VPB sky130_fd_pr__pfet_01v8_hvt ad=0p pd=0u as=0p ps=0u w=940000u l=150000u
X30 Z A a_193_47# VNB sky130_fd_pr__nfet_01v8 ad=0p pd=0u as=0p ps=0u w=650000u l=150000u
X31 a_215_309# a_27_47# VPWR VPB sky130_fd_pr__pfet_01v8_hvt ad=0p pd=0u as=0p ps=0u w=940000u l=150000u
X32 VPWR TE a_27_47# VPB sky130_fd_pr__pfet_01v8_hvt ad=0p pd=0u as=2.6e+11p ps=2.52e+06u w=1e+06u l=150000u
X33 VGND TE a_27_47# VNB sky130_fd_pr__nfet_01v8 ad=0p pd=0u as=1.69e+11p ps=1.82e+06u w=650000u l=150000u
.ends

.subckt sky130_fd_sc_hd__decap_3 VGND VPWR VNB VPB
X0 VPWR VGND VPWR VPB sky130_fd_pr__pfet_01v8_hvt ad=4.524e+11p pd=4.52e+06u as=0p ps=0u w=870000u l=590000u
X1 VGND VPWR VGND VNB sky130_fd_pr__nfet_01v8 ad=2.86e+11p pd=3.24e+06u as=0p ps=0u w=550000u l=590000u
.ends

.subckt sky130_fd_sc_hd__nand2_4 A B VGND VPWR Y VNB VPB
X0 a_27_47# A Y VNB sky130_fd_pr__nfet_01v8 ad=8.645e+11p pd=9.16e+06u as=3.51e+11p ps=3.68e+06u w=650000u l=150000u
X1 a_27_47# A Y VNB sky130_fd_pr__nfet_01v8 ad=0p pd=0u as=0p ps=0u w=650000u l=150000u
X2 Y A VPWR VPB sky130_fd_pr__pfet_01v8_hvt ad=1.08e+12p pd=1.016e+07u as=1.33e+12p ps=1.266e+07u w=1e+06u l=150000u
X3 VPWR B Y VPB sky130_fd_pr__pfet_01v8_hvt ad=0p pd=0u as=0p ps=0u w=1e+06u l=150000u
X4 Y B VPWR VPB sky130_fd_pr__pfet_01v8_hvt ad=0p pd=0u as=0p ps=0u w=1e+06u l=150000u
X5 VPWR B Y VPB sky130_fd_pr__pfet_01v8_hvt ad=0p pd=0u as=0p ps=0u w=1e+06u l=150000u
X6 a_27_47# B VGND VNB sky130_fd_pr__nfet_01v8 ad=0p pd=0u as=3.51e+11p ps=3.68e+06u w=650000u l=150000u
X7 a_27_47# B VGND VNB sky130_fd_pr__nfet_01v8 ad=0p pd=0u as=0p ps=0u w=650000u l=150000u
X8 VPWR A Y VPB sky130_fd_pr__pfet_01v8_hvt ad=0p pd=0u as=0p ps=0u w=1e+06u l=150000u
X9 VGND B a_27_47# VNB sky130_fd_pr__nfet_01v8 ad=0p pd=0u as=0p ps=0u w=650000u l=150000u
X10 Y A a_27_47# VNB sky130_fd_pr__nfet_01v8 ad=0p pd=0u as=0p ps=0u w=650000u l=150000u
X11 Y A VPWR VPB sky130_fd_pr__pfet_01v8_hvt ad=0p pd=0u as=0p ps=0u w=1e+06u l=150000u
X12 Y A a_27_47# VNB sky130_fd_pr__nfet_01v8 ad=0p pd=0u as=0p ps=0u w=650000u l=150000u
X13 VPWR A Y VPB sky130_fd_pr__pfet_01v8_hvt ad=0p pd=0u as=0p ps=0u w=1e+06u l=150000u
X14 Y B VPWR VPB sky130_fd_pr__pfet_01v8_hvt ad=0p pd=0u as=0p ps=0u w=1e+06u l=150000u
X15 VGND B a_27_47# VNB sky130_fd_pr__nfet_01v8 ad=0p pd=0u as=0p ps=0u w=650000u l=150000u
.ends

.subckt sky130_fd_sc_hd__decap_6 VGND VPWR VNB VPB
X0 VPWR VGND VPWR VPB sky130_fd_pr__pfet_01v8_hvt ad=4.524e+11p pd=4.52e+06u as=0p ps=0u w=870000u l=1.97e+06u
X1 VGND VPWR VGND VNB sky130_fd_pr__nfet_01v8 ad=2.86e+11p pd=3.24e+06u as=0p ps=0u w=550000u l=1.97e+06u
.ends

.subckt sky130_fd_sc_hd__inv_8 A VGND VPWR Y VNB VPB
X0 VPWR A Y VPB sky130_fd_pr__pfet_01v8_hvt ad=1.33e+12p pd=1.266e+07u as=1.08e+12p ps=1.016e+07u w=1e+06u l=150000u
X1 Y A VPWR VPB sky130_fd_pr__pfet_01v8_hvt ad=0p pd=0u as=0p ps=0u w=1e+06u l=150000u
X2 Y A VGND VNB sky130_fd_pr__nfet_01v8 ad=7.02e+11p pd=7.36e+06u as=8.645e+11p ps=9.16e+06u w=650000u l=150000u
X3 Y A VGND VNB sky130_fd_pr__nfet_01v8 ad=0p pd=0u as=0p ps=0u w=650000u l=150000u
X4 VPWR A Y VPB sky130_fd_pr__pfet_01v8_hvt ad=0p pd=0u as=0p ps=0u w=1e+06u l=150000u
X5 Y A VPWR VPB sky130_fd_pr__pfet_01v8_hvt ad=0p pd=0u as=0p ps=0u w=1e+06u l=150000u
X6 Y A VGND VNB sky130_fd_pr__nfet_01v8 ad=0p pd=0u as=0p ps=0u w=650000u l=150000u
X7 VPWR A Y VPB sky130_fd_pr__pfet_01v8_hvt ad=0p pd=0u as=0p ps=0u w=1e+06u l=150000u
X8 Y A VGND VNB sky130_fd_pr__nfet_01v8 ad=0p pd=0u as=0p ps=0u w=650000u l=150000u
X9 Y A VPWR VPB sky130_fd_pr__pfet_01v8_hvt ad=0p pd=0u as=0p ps=0u w=1e+06u l=150000u
X10 VPWR A Y VPB sky130_fd_pr__pfet_01v8_hvt ad=0p pd=0u as=0p ps=0u w=1e+06u l=150000u
X11 VGND A Y VNB sky130_fd_pr__nfet_01v8 ad=0p pd=0u as=0p ps=0u w=650000u l=150000u
X12 VGND A Y VNB sky130_fd_pr__nfet_01v8 ad=0p pd=0u as=0p ps=0u w=650000u l=150000u
X13 VGND A Y VNB sky130_fd_pr__nfet_01v8 ad=0p pd=0u as=0p ps=0u w=650000u l=150000u
X14 Y A VPWR VPB sky130_fd_pr__pfet_01v8_hvt ad=0p pd=0u as=0p ps=0u w=1e+06u l=150000u
X15 VGND A Y VNB sky130_fd_pr__nfet_01v8 ad=0p pd=0u as=0p ps=0u w=650000u l=150000u
.ends

.subckt sky130_fd_sc_hd__buf_8 A VGND VPWR X VNB VPB
X0 X a_27_47# VGND VNB sky130_fd_pr__nfet_01v8 ad=7.02e+11p pd=7.36e+06u as=1.0465e+12p ps=1.102e+07u w=650000u l=150000u
X1 X a_27_47# VGND VNB sky130_fd_pr__nfet_01v8 ad=0p pd=0u as=0p ps=0u w=650000u l=150000u
X2 X a_27_47# VGND VNB sky130_fd_pr__nfet_01v8 ad=0p pd=0u as=0p ps=0u w=650000u l=150000u
X3 VPWR a_27_47# X VPB sky130_fd_pr__pfet_01v8_hvt ad=1.61e+12p pd=1.522e+07u as=1.08e+12p ps=1.016e+07u w=1e+06u l=150000u
X4 X a_27_47# VPWR VPB sky130_fd_pr__pfet_01v8_hvt ad=0p pd=0u as=0p ps=0u w=1e+06u l=150000u
X5 VGND a_27_47# X VNB sky130_fd_pr__nfet_01v8 ad=0p pd=0u as=0p ps=0u w=650000u l=150000u
X6 VPWR A a_27_47# VPB sky130_fd_pr__pfet_01v8_hvt ad=0p pd=0u as=5.3e+11p ps=5.06e+06u w=1e+06u l=150000u
X7 VPWR a_27_47# X VPB sky130_fd_pr__pfet_01v8_hvt ad=0p pd=0u as=0p ps=0u w=1e+06u l=150000u
X8 a_27_47# A VPWR VPB sky130_fd_pr__pfet_01v8_hvt ad=0p pd=0u as=0p ps=0u w=1e+06u l=150000u
X9 X a_27_47# VPWR VPB sky130_fd_pr__pfet_01v8_hvt ad=0p pd=0u as=0p ps=0u w=1e+06u l=150000u
X10 a_27_47# A VGND VNB sky130_fd_pr__nfet_01v8 ad=3.445e+11p pd=3.66e+06u as=0p ps=0u w=650000u l=150000u
X11 X a_27_47# VGND VNB sky130_fd_pr__nfet_01v8 ad=0p pd=0u as=0p ps=0u w=650000u l=150000u
X12 VPWR a_27_47# X VPB sky130_fd_pr__pfet_01v8_hvt ad=0p pd=0u as=0p ps=0u w=1e+06u l=150000u
X13 X a_27_47# VPWR VPB sky130_fd_pr__pfet_01v8_hvt ad=0p pd=0u as=0p ps=0u w=1e+06u l=150000u
X14 VGND A a_27_47# VNB sky130_fd_pr__nfet_01v8 ad=0p pd=0u as=0p ps=0u w=650000u l=150000u
X15 VGND a_27_47# X VNB sky130_fd_pr__nfet_01v8 ad=0p pd=0u as=0p ps=0u w=650000u l=150000u
X16 VPWR a_27_47# X VPB sky130_fd_pr__pfet_01v8_hvt ad=0p pd=0u as=0p ps=0u w=1e+06u l=150000u
X17 VGND a_27_47# X VNB sky130_fd_pr__nfet_01v8 ad=0p pd=0u as=0p ps=0u w=650000u l=150000u
X18 VGND a_27_47# X VNB sky130_fd_pr__nfet_01v8 ad=0p pd=0u as=0p ps=0u w=650000u l=150000u
X19 X a_27_47# VPWR VPB sky130_fd_pr__pfet_01v8_hvt ad=0p pd=0u as=0p ps=0u w=1e+06u l=150000u
X20 VPWR A a_27_47# VPB sky130_fd_pr__pfet_01v8_hvt ad=0p pd=0u as=0p ps=0u w=1e+06u l=150000u
X21 VGND A a_27_47# VNB sky130_fd_pr__nfet_01v8 ad=0p pd=0u as=0p ps=0u w=650000u l=150000u
.ends

.subckt sky130_fd_sc_hd__conb_1 VGND VNB VPB VPWR HI LO
R0 HI VPWR sky130_fd_pr__res_generic_po w=480000u l=45000u
R1 VGND LO sky130_fd_pr__res_generic_po w=480000u l=45000u
.ends

.subckt mprj2_logic_high HI vccd2 vssd2
XFILLER_0_59 vssd2 vccd2 vssd2 vccd2 sky130_fd_sc_hd__decap_12
XFILLER_0_15 vssd2 vccd2 vssd2 vccd2 sky130_fd_sc_hd__decap_12
XFILLER_1_170 vssd2 vccd2 vssd2 vccd2 sky130_fd_sc_hd__decap_4
XFILLER_1_71 vssd2 vccd2 vssd2 vccd2 sky130_fd_sc_hd__decap_12
XFILLER_1_3 vssd2 vccd2 vssd2 vccd2 sky130_fd_sc_hd__decap_12
XFILLER_1_83 vssd2 vccd2 vssd2 vccd2 sky130_fd_sc_hd__decap_4
XPHY_0 vssd2 vccd2 vssd2 vccd2 sky130_fd_sc_hd__decap_3
XPHY_1 vssd2 vccd2 vssd2 vccd2 sky130_fd_sc_hd__decap_3
XFILLER_1_30 vssd2 vccd2 vssd2 vccd2 sky130_fd_sc_hd__decap_12
XFILLER_1_42 vssd2 vccd2 vssd2 vccd2 sky130_fd_sc_hd__decap_12
XPHY_2 vssd2 vccd2 vssd2 vccd2 sky130_fd_sc_hd__decap_3
XPHY_3 vssd2 vccd2 vssd2 vccd2 sky130_fd_sc_hd__decap_3
XFILLER_1_141 vssd2 vccd2 vssd2 vccd2 sky130_fd_sc_hd__decap_4
XFILLER_1_54 vssd2 vccd2 vssd2 vccd2 sky130_fd_sc_hd__decap_4
XFILLER_0_207 vssd2 vccd2 vssd2 vccd2 sky130_fd_sc_hd__decap_6
XFILLER_1_175 vssd2 vccd2 vssd2 vccd2 sky130_fd_sc_hd__decap_12
XFILLER_1_88 vssd2 vccd2 vssd2 vccd2 sky130_fd_sc_hd__decap_12
XFILLER_1_187 vssd2 vccd2 vssd2 vccd2 sky130_fd_sc_hd__decap_12
XFILLER_1_199 vssd2 vccd2 vssd2 vccd2 sky130_fd_sc_hd__decap_4
XFILLER_1_112 vssd2 vccd2 vssd2 vccd2 sky130_fd_sc_hd__decap_4
XFILLER_1_100 vssd2 vccd2 vssd2 vccd2 sky130_fd_sc_hd__decap_12
XFILLER_1_146 vssd2 vccd2 vssd2 vccd2 sky130_fd_sc_hd__decap_12
XFILLER_1_158 vssd2 vccd2 vssd2 vccd2 sky130_fd_sc_hd__decap_12
XFILLER_1_59 vssd2 vccd2 vssd2 vccd2 sky130_fd_sc_hd__decap_12
XFILLER_1_15 vssd2 vccd2 vssd2 vccd2 sky130_fd_sc_hd__decap_12
XFILLER_0_170 vssd2 vccd2 vssd2 vccd2 sky130_fd_sc_hd__decap_4
XFILLER_1_117 vssd2 vccd2 vssd2 vccd2 sky130_fd_sc_hd__decap_12
XFILLER_1_129 vssd2 vccd2 vssd2 vccd2 sky130_fd_sc_hd__decap_12
XFILLER_0_141 vssd2 vccd2 vssd2 vccd2 sky130_fd_sc_hd__decap_4
XFILLER_0_175 vssd2 vccd2 vssd2 vccd2 sky130_fd_sc_hd__decap_12
XFILLER_0_199 vssd2 vccd2 vssd2 vccd2 sky130_fd_sc_hd__decap_4
XFILLER_0_187 vssd2 vccd2 vssd2 vccd2 sky130_fd_sc_hd__decap_12
XFILLER_0_100 vssd2 vccd2 vssd2 vccd2 sky130_fd_sc_hd__decap_12
XFILLER_0_112 vssd2 vccd2 vssd2 vccd2 sky130_fd_sc_hd__decap_4
XFILLER_0_146 vssd2 vccd2 vssd2 vccd2 sky130_fd_sc_hd__decap_12
XFILLER_0_3 vssd2 vccd2 vssd2 vccd2 sky130_fd_sc_hd__decap_12
XFILLER_0_158 vssd2 vccd2 vssd2 vccd2 sky130_fd_sc_hd__decap_12
XFILLER_0_71 vssd2 vccd2 vssd2 vccd2 sky130_fd_sc_hd__decap_12
Xinst vssd2 vssd2 vccd2 vccd2 HI inst/LO sky130_fd_sc_hd__conb_1
XFILLER_0_117 vssd2 vccd2 vssd2 vccd2 sky130_fd_sc_hd__decap_12
XFILLER_0_83 vssd2 vccd2 vssd2 vccd2 sky130_fd_sc_hd__decap_4
XFILLER_0_129 vssd2 vccd2 vssd2 vccd2 sky130_fd_sc_hd__decap_12
XFILLER_0_30 vssd2 vccd2 vssd2 vccd2 sky130_fd_sc_hd__decap_12
XFILLER_0_42 vssd2 vccd2 vssd2 vccd2 sky130_fd_sc_hd__decap_12
XFILLER_1_204 vssd2 vccd2 vssd2 vccd2 sky130_fd_sc_hd__decap_8
XFILLER_0_54 vssd2 vccd2 vssd2 vccd2 sky130_fd_sc_hd__decap_4
XFILLER_0_88 vssd2 vccd2 vssd2 vccd2 sky130_fd_sc_hd__decap_12
.ends

.subckt mprj_logic_high HI[0] HI[100] HI[101] HI[102] HI[103] HI[104] HI[106] HI[107]
+ HI[108] HI[109] HI[10] HI[110] HI[111] HI[112] HI[113] HI[114] HI[115] HI[116] HI[117]
+ HI[119] HI[11] HI[120] HI[121] HI[122] HI[123] HI[124] HI[125] HI[126] HI[127] HI[128]
+ HI[129] HI[130] HI[131] HI[132] HI[133] HI[134] HI[136] HI[138] HI[13] HI[140] HI[141]
+ HI[142] HI[143] HI[144] HI[145] HI[146] HI[147] HI[148] HI[149] HI[14] HI[150] HI[151]
+ HI[152] HI[153] HI[154] HI[155] HI[157] HI[158] HI[159] HI[15] HI[160] HI[161] HI[162]
+ HI[163] HI[165] HI[166] HI[167] HI[169] HI[16] HI[170] HI[172] HI[173] HI[174] HI[175]
+ HI[176] HI[177] HI[178] HI[179] HI[17] HI[180] HI[181] HI[182] HI[183] HI[184] HI[185]
+ HI[186] HI[187] HI[188] HI[189] HI[18] HI[191] HI[192] HI[193] HI[195] HI[198] HI[199]
+ HI[19] HI[1] HI[200] HI[201] HI[202] HI[203] HI[204] HI[205] HI[206] HI[207] HI[208]
+ HI[209] HI[20] HI[210] HI[211] HI[212] HI[213] HI[214] HI[215] HI[216] HI[217] HI[218]
+ HI[219] HI[21] HI[220] HI[221] HI[222] HI[223] HI[224] HI[225] HI[226] HI[227] HI[228]
+ HI[229] HI[22] HI[230] HI[231] HI[232] HI[233] HI[234] HI[235] HI[236] HI[237] HI[238]
+ HI[239] HI[23] HI[240] HI[241] HI[242] HI[243] HI[244] HI[245] HI[246] HI[247] HI[248]
+ HI[249] HI[24] HI[250] HI[251] HI[252] HI[253] HI[254] HI[255] HI[256] HI[257] HI[258]
+ HI[259] HI[25] HI[260] HI[261] HI[262] HI[263] HI[264] HI[265] HI[266] HI[267] HI[268]
+ HI[269] HI[26] HI[270] HI[271] HI[272] HI[273] HI[274] HI[275] HI[276] HI[277] HI[278]
+ HI[279] HI[27] HI[280] HI[281] HI[282] HI[283] HI[284] HI[285] HI[286] HI[287] HI[288]
+ HI[289] HI[28] HI[290] HI[291] HI[292] HI[293] HI[294] HI[295] HI[296] HI[297] HI[298]
+ HI[299] HI[29] HI[2] HI[300] HI[301] HI[302] HI[303] HI[304] HI[305] HI[306] HI[307]
+ HI[308] HI[309] HI[30] HI[310] HI[312] HI[313] HI[314] HI[315] HI[316] HI[317] HI[318]
+ HI[319] HI[31] HI[320] HI[321] HI[322] HI[323] HI[324] HI[325] HI[326] HI[327] HI[328]
+ HI[329] HI[32] HI[330] HI[331] HI[332] HI[333] HI[334] HI[335] HI[336] HI[337] HI[338]
+ HI[339] HI[33] HI[340] HI[341] HI[342] HI[343] HI[344] HI[345] HI[346] HI[347] HI[348]
+ HI[349] HI[34] HI[350] HI[351] HI[352] HI[353] HI[354] HI[355] HI[356] HI[357] HI[358]
+ HI[359] HI[35] HI[360] HI[361] HI[362] HI[363] HI[364] HI[365] HI[366] HI[367] HI[368]
+ HI[369] HI[36] HI[370] HI[371] HI[372] HI[373] HI[374] HI[375] HI[376] HI[377] HI[378]
+ HI[379] HI[37] HI[380] HI[381] HI[382] HI[383] HI[384] HI[385] HI[386] HI[387] HI[388]
+ HI[389] HI[38] HI[390] HI[391] HI[392] HI[393] HI[394] HI[395] HI[396] HI[397] HI[398]
+ HI[399] HI[39] HI[3] HI[400] HI[401] HI[402] HI[403] HI[404] HI[405] HI[406] HI[407]
+ HI[408] HI[409] HI[40] HI[410] HI[411] HI[412] HI[413] HI[414] HI[415] HI[416] HI[417]
+ HI[418] HI[419] HI[41] HI[420] HI[421] HI[422] HI[423] HI[424] HI[425] HI[426] HI[427]
+ HI[428] HI[429] HI[42] HI[430] HI[431] HI[432] HI[433] HI[434] HI[435] HI[436] HI[437]
+ HI[438] HI[439] HI[43] HI[440] HI[441] HI[442] HI[443] HI[444] HI[445] HI[446] HI[447]
+ HI[448] HI[449] HI[44] HI[450] HI[451] HI[452] HI[453] HI[454] HI[455] HI[456] HI[457]
+ HI[458] HI[459] HI[45] HI[460] HI[461] HI[46] HI[47] HI[48] HI[49] HI[4] HI[50]
+ HI[51] HI[52] HI[53] HI[54] HI[55] HI[56] HI[57] HI[58] HI[59] HI[5] HI[60] HI[61]
+ HI[62] HI[63] HI[64] HI[65] HI[66] HI[67] HI[68] HI[69] HI[6] HI[70] HI[71] HI[72]
+ HI[73] HI[74] HI[75] HI[76] HI[77] HI[78] HI[79] HI[7] HI[80] HI[81] HI[82] HI[83]
+ HI[84] HI[85] HI[86] HI[87] HI[88] HI[89] HI[8] HI[90] HI[91] HI[92] HI[93] HI[94]
+ HI[95] HI[96] HI[97] HI[98] HI[99] HI[9] vccd1 HI[139] HI[311] HI[156] HI[196] HI[137]
+ HI[190] HI[164] HI[197] HI[118] HI[105] HI[194] HI[12] HI[171] HI[135] HI[168] vssd1
Xinsts\[308\] vssd1 vssd1 vccd1 vccd1 HI[308] insts\[308\]/LO sky130_fd_sc_hd__conb_1
Xinsts\[210\] vssd1 vssd1 vccd1 vccd1 HI[210] insts\[210\]/LO sky130_fd_sc_hd__conb_1
XFILLER_1_571 vssd1 vccd1 vssd1 vccd1 sky130_fd_sc_hd__decap_8
XFILLER_1_582 vssd1 vccd1 vssd1 vccd1 sky130_fd_sc_hd__decap_12
Xinsts\[425\] vssd1 vssd1 vccd1 vccd1 HI[425] insts\[425\]/LO sky130_fd_sc_hd__conb_1
Xinsts\[258\] vssd1 vssd1 vccd1 vccd1 HI[258] insts\[258\]/LO sky130_fd_sc_hd__conb_1
Xinsts\[160\] vssd1 vssd1 vccd1 vccd1 HI[160] insts\[160\]/LO sky130_fd_sc_hd__conb_1
Xinsts\[40\] vssd1 vssd1 vccd1 vccd1 HI[40] insts\[40\]/LO sky130_fd_sc_hd__conb_1
Xinsts\[375\] vssd1 vssd1 vccd1 vccd1 HI[375] insts\[375\]/LO sky130_fd_sc_hd__conb_1
Xinsts\[88\] vssd1 vssd1 vccd1 vccd1 HI[88] insts\[88\]/LO sky130_fd_sc_hd__conb_1
XFILLER_4_419 vssd1 vccd1 vssd1 vccd1 sky130_fd_sc_hd__decap_12
Xinsts\[123\] vssd1 vssd1 vccd1 vccd1 HI[123] insts\[123\]/LO sky130_fd_sc_hd__conb_1
XFILLER_4_216 vssd1 vccd1 vssd1 vccd1 sky130_fd_sc_hd__decap_12
Xinsts\[240\] vssd1 vssd1 vccd1 vccd1 HI[240] insts\[240\]/LO sky130_fd_sc_hd__conb_1
Xinsts\[338\] vssd1 vssd1 vccd1 vccd1 HI[338] insts\[338\]/LO sky130_fd_sc_hd__conb_1
XFILLER_4_750 vssd1 vccd1 vssd1 vccd1 sky130_fd_sc_hd__decap_4
Xinsts\[9\] vssd1 vssd1 vccd1 vccd1 HI[9] insts\[9\]/LO sky130_fd_sc_hd__conb_1
Xinsts\[455\] vssd1 vssd1 vccd1 vccd1 HI[455] insts\[455\]/LO sky130_fd_sc_hd__conb_1
Xinsts\[288\] vssd1 vssd1 vccd1 vccd1 HI[288] insts\[288\]/LO sky130_fd_sc_hd__conb_1
Xinsts\[190\] vssd1 vssd1 vccd1 vccd1 HI[190] insts\[190\]/LO sky130_fd_sc_hd__conb_1
Xinsts\[70\] vssd1 vssd1 vccd1 vccd1 HI[70] insts\[70\]/LO sky130_fd_sc_hd__conb_1
Xinsts\[203\] vssd1 vssd1 vccd1 vccd1 HI[203] insts\[203\]/LO sky130_fd_sc_hd__conb_1
XFILLER_1_550 vssd1 vccd1 vssd1 vccd1 sky130_fd_sc_hd__decap_12
XFILLER_1_594 vssd1 vccd1 vssd1 vccd1 sky130_fd_sc_hd__decap_12
Xinsts\[418\] vssd1 vssd1 vccd1 vccd1 HI[418] insts\[418\]/LO sky130_fd_sc_hd__conb_1
Xinsts\[153\] vssd1 vssd1 vccd1 vccd1 HI[153] insts\[153\]/LO sky130_fd_sc_hd__conb_1
Xinsts\[320\] vssd1 vssd1 vccd1 vccd1 HI[320] insts\[320\]/LO sky130_fd_sc_hd__conb_1
Xinsts\[33\] vssd1 vssd1 vccd1 vccd1 HI[33] insts\[33\]/LO sky130_fd_sc_hd__conb_1
XFILLER_1_391 vssd1 vccd1 vssd1 vccd1 sky130_fd_sc_hd__decap_8
Xinsts\[270\] vssd1 vssd1 vccd1 vccd1 HI[270] insts\[270\]/LO sky130_fd_sc_hd__conb_1
Xinsts\[368\] vssd1 vssd1 vccd1 vccd1 HI[368] insts\[368\]/LO sky130_fd_sc_hd__conb_1
XFILLER_2_144 vssd1 vccd1 vssd1 vccd1 sky130_fd_sc_hd__decap_12
XFILLER_2_111 vssd1 vccd1 vssd1 vccd1 sky130_fd_sc_hd__decap_12
Xinsts\[116\] vssd1 vssd1 vccd1 vccd1 HI[116] insts\[116\]/LO sky130_fd_sc_hd__conb_1
XFILLER_4_228 vssd1 vccd1 vssd1 vccd1 sky130_fd_sc_hd__decap_4
Xinsts\[233\] vssd1 vssd1 vccd1 vccd1 HI[233] insts\[233\]/LO sky130_fd_sc_hd__conb_1
XFILLER_1_90 vssd1 vccd1 vssd1 vccd1 sky130_fd_sc_hd__decap_3
Xinsts\[400\] vssd1 vssd1 vccd1 vccd1 HI[400] insts\[400\]/LO sky130_fd_sc_hd__conb_1
Xinsts\[183\] vssd1 vssd1 vccd1 vccd1 HI[183] insts\[183\]/LO sky130_fd_sc_hd__conb_1
Xinsts\[448\] vssd1 vssd1 vccd1 vccd1 HI[448] insts\[448\]/LO sky130_fd_sc_hd__conb_1
XFILLER_1_732 vssd1 vccd1 vssd1 vccd1 sky130_fd_sc_hd__decap_8
Xinsts\[350\] vssd1 vssd1 vccd1 vccd1 HI[350] insts\[350\]/LO sky130_fd_sc_hd__conb_1
XFILLER_4_581 vssd1 vccd1 vssd1 vccd1 sky130_fd_sc_hd__decap_12
Xinsts\[63\] vssd1 vssd1 vccd1 vccd1 HI[63] insts\[63\]/LO sky130_fd_sc_hd__conb_1
Xinsts\[398\] vssd1 vssd1 vccd1 vccd1 HI[398] insts\[398\]/LO sky130_fd_sc_hd__conb_1
XFILLER_1_562 vssd1 vccd1 vssd1 vccd1 sky130_fd_sc_hd__decap_4
XFILLER_2_315 vssd1 vccd1 vssd1 vccd1 sky130_fd_sc_hd__decap_12
Xinsts\[146\] vssd1 vssd1 vccd1 vccd1 HI[146] insts\[146\]/LO sky130_fd_sc_hd__conb_1
Xinsts\[313\] vssd1 vssd1 vccd1 vccd1 HI[313] insts\[313\]/LO sky130_fd_sc_hd__conb_1
Xinsts\[26\] vssd1 vssd1 vccd1 vccd1 HI[26] insts\[26\]/LO sky130_fd_sc_hd__conb_1
Xinsts\[430\] vssd1 vssd1 vccd1 vccd1 HI[430] insts\[430\]/LO sky130_fd_sc_hd__conb_1
Xinsts\[263\] vssd1 vssd1 vccd1 vccd1 HI[263] insts\[263\]/LO sky130_fd_sc_hd__conb_1
XFILLER_3_3 vssd1 vccd1 vssd1 vccd1 sky130_fd_sc_hd__decap_6
XFILLER_2_156 vssd1 vccd1 vssd1 vccd1 sky130_fd_sc_hd__decap_12
XFILLER_2_123 vssd1 vccd1 vssd1 vccd1 sky130_fd_sc_hd__decap_12
Xinsts\[109\] vssd1 vssd1 vccd1 vccd1 HI[109] insts\[109\]/LO sky130_fd_sc_hd__conb_1
Xinsts\[380\] vssd1 vssd1 vccd1 vccd1 HI[380] insts\[380\]/LO sky130_fd_sc_hd__conb_1
Xinsts\[93\] vssd1 vssd1 vccd1 vccd1 HI[93] insts\[93\]/LO sky130_fd_sc_hd__conb_1
Xinsts\[226\] vssd1 vssd1 vccd1 vccd1 HI[226] insts\[226\]/LO sky130_fd_sc_hd__conb_1
Xinsts\[343\] vssd1 vssd1 vccd1 vccd1 HI[343] insts\[343\]/LO sky130_fd_sc_hd__conb_1
Xinsts\[176\] vssd1 vssd1 vccd1 vccd1 HI[176] insts\[176\]/LO sky130_fd_sc_hd__conb_1
XFILLER_1_700 vssd1 vccd1 vssd1 vccd1 sky130_fd_sc_hd__decap_12
XFILLER_4_593 vssd1 vccd1 vssd1 vccd1 sky130_fd_sc_hd__decap_12
Xinsts\[56\] vssd1 vssd1 vccd1 vccd1 HI[56] insts\[56\]/LO sky130_fd_sc_hd__conb_1
Xinsts\[460\] vssd1 vssd1 vccd1 vccd1 HI[460] insts\[460\]/LO sky130_fd_sc_hd__conb_1
Xinsts\[293\] vssd1 vssd1 vccd1 vccd1 HI[293] insts\[293\]/LO sky130_fd_sc_hd__conb_1
XFILLER_4_390 vssd1 vccd1 vssd1 vccd1 sky130_fd_sc_hd__decap_12
XFILLER_2_327 vssd1 vccd1 vssd1 vccd1 sky130_fd_sc_hd__decap_12
Xinsts\[139\] vssd1 vssd1 vccd1 vccd1 HI[139] insts\[139\]/LO sky130_fd_sc_hd__conb_1
Xinsts\[306\] vssd1 vssd1 vccd1 vccd1 HI[306] insts\[306\]/LO sky130_fd_sc_hd__conb_1
Xinsts\[19\] vssd1 vssd1 vccd1 vccd1 HI[19] insts\[19\]/LO sky130_fd_sc_hd__conb_1
Xinsts\[423\] vssd1 vssd1 vccd1 vccd1 HI[423] insts\[423\]/LO sky130_fd_sc_hd__conb_1
Xinsts\[256\] vssd1 vssd1 vccd1 vccd1 HI[256] insts\[256\]/LO sky130_fd_sc_hd__conb_1
XFILLER_2_168 vssd1 vccd1 vssd1 vccd1 sky130_fd_sc_hd__decap_12
XFILLER_2_135 vssd1 vccd1 vssd1 vccd1 sky130_fd_sc_hd__decap_8
Xinsts\[373\] vssd1 vssd1 vccd1 vccd1 HI[373] insts\[373\]/LO sky130_fd_sc_hd__conb_1
Xinsts\[86\] vssd1 vssd1 vccd1 vccd1 HI[86] insts\[86\]/LO sky130_fd_sc_hd__conb_1
XFILLER_1_70 vssd1 vccd1 vssd1 vccd1 sky130_fd_sc_hd__decap_12
Xinsts\[219\] vssd1 vssd1 vccd1 vccd1 HI[219] insts\[219\]/LO sky130_fd_sc_hd__conb_1
Xinsts\[121\] vssd1 vssd1 vccd1 vccd1 HI[121] insts\[121\]/LO sky130_fd_sc_hd__conb_1
XFILLER_1_712 vssd1 vccd1 vssd1 vccd1 sky130_fd_sc_hd__decap_12
Xinsts\[336\] vssd1 vssd1 vccd1 vccd1 HI[336] insts\[336\]/LO sky130_fd_sc_hd__conb_1
Xinsts\[169\] vssd1 vssd1 vccd1 vccd1 HI[169] insts\[169\]/LO sky130_fd_sc_hd__conb_1
Xinsts\[49\] vssd1 vssd1 vccd1 vccd1 HI[49] insts\[49\]/LO sky130_fd_sc_hd__conb_1
Xinsts\[286\] vssd1 vssd1 vccd1 vccd1 HI[286] insts\[286\]/LO sky130_fd_sc_hd__conb_1
Xinsts\[7\] vssd1 vssd1 vccd1 vccd1 HI[7] insts\[7\]/LO sky130_fd_sc_hd__conb_1
Xinsts\[453\] vssd1 vssd1 vccd1 vccd1 HI[453] insts\[453\]/LO sky130_fd_sc_hd__conb_1
XFILLER_2_339 vssd1 vccd1 vssd1 vccd1 sky130_fd_sc_hd__decap_12
XFILLER_2_306 vssd1 vccd1 vssd1 vccd1 sky130_fd_sc_hd__decap_8
Xinsts\[201\] vssd1 vssd1 vccd1 vccd1 HI[201] insts\[201\]/LO sky130_fd_sc_hd__conb_1
Xinsts\[416\] vssd1 vssd1 vccd1 vccd1 HI[416] insts\[416\]/LO sky130_fd_sc_hd__conb_1
Xinsts\[249\] vssd1 vssd1 vccd1 vccd1 HI[249] insts\[249\]/LO sky130_fd_sc_hd__conb_1
Xinsts\[151\] vssd1 vssd1 vccd1 vccd1 HI[151] insts\[151\]/LO sky130_fd_sc_hd__conb_1
XFILLER_2_681 vssd1 vccd1 vssd1 vccd1 sky130_fd_sc_hd__decap_12
Xinsts\[31\] vssd1 vssd1 vccd1 vccd1 HI[31] insts\[31\]/LO sky130_fd_sc_hd__conb_1
Xinsts\[199\] vssd1 vssd1 vccd1 vccd1 HI[199] insts\[199\]/LO sky130_fd_sc_hd__conb_1
Xinsts\[366\] vssd1 vssd1 vccd1 vccd1 HI[366] insts\[366\]/LO sky130_fd_sc_hd__conb_1
Xinsts\[79\] vssd1 vssd1 vccd1 vccd1 HI[79] insts\[79\]/LO sky130_fd_sc_hd__conb_1
XFILLER_1_82 vssd1 vccd1 vssd1 vccd1 sky130_fd_sc_hd__decap_8
Xinsts\[114\] vssd1 vssd1 vccd1 vccd1 HI[114] insts\[114\]/LO sky130_fd_sc_hd__conb_1
XFILLER_4_721 vssd1 vccd1 vssd1 vccd1 sky130_fd_sc_hd__decap_4
Xinsts\[231\] vssd1 vssd1 vccd1 vccd1 HI[231] insts\[231\]/LO sky130_fd_sc_hd__conb_1
XFILLER_1_724 vssd1 vccd1 vssd1 vccd1 sky130_fd_sc_hd__decap_4
Xinsts\[329\] vssd1 vssd1 vccd1 vccd1 HI[329] insts\[329\]/LO sky130_fd_sc_hd__conb_1
Xinsts\[446\] vssd1 vssd1 vccd1 vccd1 HI[446] insts\[446\]/LO sky130_fd_sc_hd__conb_1
Xinsts\[279\] vssd1 vssd1 vccd1 vccd1 HI[279] insts\[279\]/LO sky130_fd_sc_hd__conb_1
Xinsts\[181\] vssd1 vssd1 vccd1 vccd1 HI[181] insts\[181\]/LO sky130_fd_sc_hd__conb_1
XFILLER_1_510 vssd1 vccd1 vssd1 vccd1 sky130_fd_sc_hd__decap_3
Xinsts\[61\] vssd1 vssd1 vccd1 vccd1 HI[61] insts\[61\]/LO sky130_fd_sc_hd__conb_1
Xinsts\[396\] vssd1 vssd1 vccd1 vccd1 HI[396] insts\[396\]/LO sky130_fd_sc_hd__conb_1
XFILLER_4_71 vssd1 vccd1 vssd1 vccd1 sky130_fd_sc_hd__decap_12
Xinsts\[144\] vssd1 vssd1 vccd1 vccd1 HI[144] insts\[144\]/LO sky130_fd_sc_hd__conb_1
Xinsts\[311\] vssd1 vssd1 vccd1 vccd1 HI[311] insts\[311\]/LO sky130_fd_sc_hd__conb_1
Xinsts\[409\] vssd1 vssd1 vccd1 vccd1 HI[409] insts\[409\]/LO sky130_fd_sc_hd__conb_1
Xinsts\[24\] vssd1 vssd1 vccd1 vccd1 HI[24] insts\[24\]/LO sky130_fd_sc_hd__conb_1
XFILLER_2_693 vssd1 vccd1 vssd1 vccd1 sky130_fd_sc_hd__decap_12
Xinsts\[261\] vssd1 vssd1 vccd1 vccd1 HI[261] insts\[261\]/LO sky130_fd_sc_hd__conb_1
XFILLER_1_3 vssd1 vccd1 vssd1 vccd1 sky130_fd_sc_hd__decap_8
Xinsts\[359\] vssd1 vssd1 vccd1 vccd1 HI[359] insts\[359\]/LO sky130_fd_sc_hd__conb_1
Xinsts\[107\] vssd1 vssd1 vccd1 vccd1 HI[107] insts\[107\]/LO sky130_fd_sc_hd__conb_1
XFILLER_4_755 vssd1 vccd1 vssd1 vccd1 sky130_fd_sc_hd__decap_12
Xinsts\[91\] vssd1 vssd1 vccd1 vccd1 HI[91] insts\[91\]/LO sky130_fd_sc_hd__conb_1
XFILLER_4_552 vssd1 vccd1 vssd1 vccd1 sky130_fd_sc_hd__decap_12
Xinsts\[224\] vssd1 vssd1 vccd1 vccd1 HI[224] insts\[224\]/LO sky130_fd_sc_hd__conb_1
XFILLER_1_747 vssd1 vccd1 vssd1 vccd1 sky130_fd_sc_hd__decap_12
XPHY_0 vssd1 vccd1 vssd1 vccd1 sky130_fd_sc_hd__decap_3
Xinsts\[439\] vssd1 vssd1 vccd1 vccd1 HI[439] insts\[439\]/LO sky130_fd_sc_hd__conb_1
Xinsts\[174\] vssd1 vssd1 vccd1 vccd1 HI[174] insts\[174\]/LO sky130_fd_sc_hd__conb_1
Xinsts\[341\] vssd1 vssd1 vccd1 vccd1 HI[341] insts\[341\]/LO sky130_fd_sc_hd__conb_1
Xinsts\[54\] vssd1 vssd1 vccd1 vccd1 HI[54] insts\[54\]/LO sky130_fd_sc_hd__conb_1
Xinsts\[291\] vssd1 vssd1 vccd1 vccd1 HI[291] insts\[291\]/LO sky130_fd_sc_hd__conb_1
Xinsts\[389\] vssd1 vssd1 vccd1 vccd1 HI[389] insts\[389\]/LO sky130_fd_sc_hd__conb_1
XFILLER_4_83 vssd1 vccd1 vssd1 vccd1 sky130_fd_sc_hd__decap_4
Xinsts\[304\] vssd1 vssd1 vccd1 vccd1 HI[304] insts\[304\]/LO sky130_fd_sc_hd__conb_1
Xinsts\[137\] vssd1 vssd1 vccd1 vccd1 HI[137] insts\[137\]/LO sky130_fd_sc_hd__conb_1
Xinsts\[17\] vssd1 vssd1 vccd1 vccd1 HI[17] insts\[17\]/LO sky130_fd_sc_hd__conb_1