* NGSPICE file created from digital_pll.ext - technology: sky130A

.subckt sky130_fd_sc_hd__decap_4 VGND VPWR VNB VPB
X0 VPWR VGND VPWR VPB sky130_fd_pr__pfet_01v8_hvt ad=4.524e+11p pd=4.52e+06u as=0p ps=0u w=870000u l=1.05e+06u
X1 VGND VPWR VGND VNB sky130_fd_pr__nfet_01v8 ad=2.86e+11p pd=3.24e+06u as=0p ps=0u w=550000u l=1.05e+06u
.ends

.subckt sky130_fd_sc_hd__or3_2 A B C VGND VPWR X VNB VPB
X0 VPWR a_30_53# X VPB sky130_fd_pr__pfet_01v8_hvt ad=6.115e+11p pd=5.31e+06u as=2.7e+11p ps=2.54e+06u w=1e+06u l=150000u
X1 VGND a_30_53# X VNB sky130_fd_pr__nfet_01v8 ad=5.024e+11p pd=5.23e+06u as=1.755e+11p ps=1.84e+06u w=650000u l=150000u
X2 X a_30_53# VPWR VPB sky130_fd_pr__pfet_01v8_hvt ad=0p pd=0u as=0p ps=0u w=1e+06u l=150000u
X3 a_112_297# C a_30_53# VPB sky130_fd_pr__pfet_01v8_hvt ad=8.82e+10p pd=1.26e+06u as=1.092e+11p ps=1.36e+06u w=420000u l=150000u
X4 X a_30_53# VGND VNB sky130_fd_pr__nfet_01v8 ad=0p pd=0u as=0p ps=0u w=650000u l=150000u
X5 VGND A a_30_53# VNB sky130_fd_pr__nfet_01v8 ad=0p pd=0u as=2.226e+11p ps=2.74e+06u w=420000u l=150000u
X6 a_30_53# B VGND VNB sky130_fd_pr__nfet_01v8 ad=0p pd=0u as=0p ps=0u w=420000u l=150000u
X7 VGND C a_30_53# VNB sky130_fd_pr__nfet_01v8 ad=0p pd=0u as=0p ps=0u w=420000u l=150000u
X8 a_184_297# B a_112_297# VPB sky130_fd_pr__pfet_01v8_hvt ad=1.386e+11p pd=1.5e+06u as=0p ps=0u w=420000u l=150000u
X9 VPWR A a_184_297# VPB sky130_fd_pr__pfet_01v8_hvt ad=0p pd=0u as=0p ps=0u w=420000u l=150000u
.ends

.subckt sky130_fd_sc_hd__decap_3 VGND VPWR VNB VPB
X0 VPWR VGND VPWR VPB sky130_fd_pr__pfet_01v8_hvt ad=4.524e+11p pd=4.52e+06u as=0p ps=0u w=870000u l=590000u
X1 VGND VPWR VGND VNB sky130_fd_pr__nfet_01v8 ad=2.86e+11p pd=3.24e+06u as=0p ps=0u w=550000u l=590000u
.ends

.subckt sky130_fd_sc_hd__dfrtp_2 CLK D RESET_B VGND VPWR Q VNB VPB
X0 a_1217_47# a_27_47# a_1108_47# VNB sky130_fd_pr__nfet_01v8 ad=1.338e+11p pd=1.5e+06u as=1.422e+11p ps=1.51e+06u w=360000u l=150000u
X1 a_805_47# a_761_289# a_639_47# VNB sky130_fd_pr__nfet_01v8 ad=8.82e+10p pd=1.26e+06u as=2.802e+11p ps=2.2e+06u w=420000u l=150000u
X2 VGND a_1283_21# Q VNB sky130_fd_pr__nfet_01v8 ad=1.2307e+12p pd=1.144e+07u as=1.755e+11p ps=1.84e+06u w=650000u l=150000u
X3 a_1108_47# a_193_47# a_761_289# VNB sky130_fd_pr__nfet_01v8 ad=0p pd=0u as=1.998e+11p ps=1.97e+06u w=360000u l=150000u
X4 a_1283_21# a_1108_47# a_1462_47# VNB sky130_fd_pr__nfet_01v8 ad=1.092e+11p pd=1.36e+06u as=1.281e+11p ps=1.45e+06u w=420000u l=150000u
X5 a_651_413# a_27_47# a_543_47# VPB sky130_fd_pr__pfet_01v8_hvt ad=3.402e+11p pd=3.3e+06u as=1.449e+11p ps=1.53e+06u w=420000u l=150000u
X6 VPWR a_1283_21# Q VPB sky130_fd_pr__pfet_01v8_hvt ad=1.4795e+12p pd=1.507e+07u as=2.7e+11p ps=2.54e+06u w=1e+06u l=150000u
X7 VGND RESET_B a_805_47# VNB sky130_fd_pr__nfet_01v8 ad=0p pd=0u as=0p ps=0u w=420000u l=150000u
X8 Q a_1283_21# VPWR VPB sky130_fd_pr__pfet_01v8_hvt ad=0p pd=0u as=0p ps=0u w=1e+06u l=150000u
X9 VPWR CLK a_27_47# VPB sky130_fd_pr__pfet_01v8_hvt ad=0p pd=0u as=1.664e+11p ps=1.8e+06u w=640000u l=150000u
X10 a_448_47# D VPWR VPB sky130_fd_pr__pfet_01v8_hvt ad=1.302e+11p pd=1.46e+06u as=0p ps=0u w=420000u l=150000u
X11 a_761_289# a_543_47# VGND VNB sky130_fd_pr__nfet_01v8 ad=0p pd=0u as=0p ps=0u w=640000u l=150000u
X12 a_193_47# a_27_47# VGND VNB sky130_fd_pr__nfet_01v8 ad=1.092e+11p pd=1.36e+06u as=0p ps=0u w=420000u l=150000u
X13 a_1108_47# a_27_47# a_761_289# VPB sky130_fd_pr__pfet_01v8_hvt ad=1.176e+11p pd=1.4e+06u as=2.583e+11p ps=2.37e+06u w=420000u l=150000u
X14 a_543_47# a_27_47# a_448_47# VNB sky130_fd_pr__nfet_01v8 ad=1.188e+11p pd=1.38e+06u as=1.32e+11p ps=1.49e+06u w=360000u l=150000u
X15 a_1462_47# RESET_B VGND VNB sky130_fd_pr__nfet_01v8 ad=0p pd=0u as=0p ps=0u w=420000u l=150000u
X16 a_543_47# a_193_47# a_448_47# VPB sky130_fd_pr__pfet_01v8_hvt ad=0p pd=0u as=0p ps=0u w=420000u l=150000u
X17 a_448_47# D VGND VNB sky130_fd_pr__nfet_01v8 ad=0p pd=0u as=0p ps=0u w=420000u l=150000u
X18 VPWR a_1283_21# a_1270_413# VPB sky130_fd_pr__pfet_01v8_hvt ad=0p pd=0u as=1.134e+11p ps=1.38e+06u w=420000u l=150000u
X19 VPWR a_1108_47# a_1283_21# VPB sky130_fd_pr__pfet_01v8_hvt ad=0p pd=0u as=1.134e+11p ps=1.38e+06u w=420000u l=150000u
X20 a_1270_413# a_193_47# a_1108_47# VPB sky130_fd_pr__pfet_01v8_hvt ad=0p pd=0u as=0p ps=0u w=420000u l=150000u
X21 a_193_47# a_27_47# VPWR VPB sky130_fd_pr__pfet_01v8_hvt ad=1.664e+11p pd=1.8e+06u as=0p ps=0u w=640000u l=150000u
X22 a_1283_21# RESET_B VPWR VPB sky130_fd_pr__pfet_01v8_hvt ad=0p pd=0u as=0p ps=0u w=420000u l=150000u
X23 VPWR a_761_289# a_651_413# VPB sky130_fd_pr__pfet_01v8_hvt ad=0p pd=0u as=0p ps=0u w=420000u l=150000u
X24 Q a_1283_21# VGND VNB sky130_fd_pr__nfet_01v8 ad=0p pd=0u as=0p ps=0u w=650000u l=150000u
X25 a_639_47# a_193_47# a_543_47# VNB sky130_fd_pr__nfet_01v8 ad=0p pd=0u as=0p ps=0u w=360000u l=150000u
X26 VGND a_1283_21# a_1217_47# VNB sky130_fd_pr__nfet_01v8 ad=0p pd=0u as=0p ps=0u w=420000u l=150000u
X27 a_651_413# RESET_B VPWR VPB sky130_fd_pr__pfet_01v8_hvt ad=0p pd=0u as=0p ps=0u w=420000u l=150000u
X28 VGND CLK a_27_47# VNB sky130_fd_pr__nfet_01v8 ad=0p pd=0u as=1.092e+11p ps=1.36e+06u w=420000u l=150000u
X29 a_761_289# a_543_47# VPWR VPB sky130_fd_pr__pfet_01v8_hvt ad=0p pd=0u as=0p ps=0u w=840000u l=150000u
.ends

.subckt sky130_fd_sc_hd__clkinv_1 A VGND VPWR Y VNB VPB
X0 Y A VPWR VPB sky130_fd_pr__pfet_01v8_hvt ad=2.268e+11p pd=2.22e+06u as=4.536e+11p ps=4.44e+06u w=840000u l=150000u
X1 VGND A Y VNB sky130_fd_pr__nfet_01v8 ad=1.197e+11p pd=1.41e+06u as=1.092e+11p ps=1.36e+06u w=420000u l=150000u
X2 VPWR A Y VPB sky130_fd_pr__pfet_01v8_hvt ad=0p pd=0u as=0p ps=0u w=840000u l=150000u
.ends

.subckt sky130_fd_sc_hd__mux2_1 A0 A1 S VGND VPWR X VNB VPB
X0 VPWR a_505_21# a_535_374# VPB sky130_fd_pr__pfet_01v8_hvt ad=4.553e+11p pd=4.29e+06u as=8.82e+10p ps=1.26e+06u w=420000u l=150000u
X1 a_505_21# S VPWR VPB sky130_fd_pr__pfet_01v8_hvt ad=1.176e+11p pd=1.4e+06u as=0p ps=0u w=420000u l=150000u
X2 a_218_374# S VPWR VPB sky130_fd_pr__pfet_01v8_hvt ad=1.533e+11p pd=1.57e+06u as=0p ps=0u w=420000u l=150000u
X3 VGND a_505_21# a_439_47# VNB sky130_fd_pr__nfet_01v8 ad=5.155e+11p pd=4.31e+06u as=1.386e+11p ps=1.5e+06u w=420000u l=150000u
X4 a_76_199# A0 a_218_374# VPB sky130_fd_pr__pfet_01v8_hvt ad=3.864e+11p pd=2.68e+06u as=0p ps=0u w=420000u l=150000u
X5 a_505_21# S VGND VNB sky130_fd_pr__nfet_01v8 ad=1.092e+11p pd=1.36e+06u as=0p ps=0u w=420000u l=150000u
X6 a_439_47# A0 a_76_199# VNB sky130_fd_pr__nfet_01v8 ad=0p pd=0u as=1.995e+11p ps=1.79e+06u w=420000u l=150000u
X7 a_535_374# A1 a_76_199# VPB sky130_fd_pr__pfet_01v8_hvt ad=0p pd=0u as=0p ps=0u w=420000u l=150000u
X8 a_76_199# A1 a_218_47# VNB sky130_fd_pr__nfet_01v8 ad=0p pd=0u as=1.386e+11p ps=1.5e+06u w=420000u l=150000u
X9 a_218_47# S VGND VNB sky130_fd_pr__nfet_01v8 ad=0p pd=0u as=0p ps=0u w=420000u l=150000u
X10 VPWR a_76_199# X VPB sky130_fd_pr__pfet_01v8_hvt ad=0p pd=0u as=2.6e+11p ps=2.52e+06u w=1e+06u l=150000u
X11 VGND a_76_199# X VNB sky130_fd_pr__nfet_01v8 ad=0p pd=0u as=1.69e+11p ps=1.82e+06u w=650000u l=150000u
.ends

.subckt sky130_fd_sc_hd__a311o_2 A1 A2 A3 B1 C1 VGND VPWR X VNB VPB
X0 a_79_21# C1 a_635_297# VPB sky130_fd_pr__pfet_01v8_hvt ad=2.6e+11p pd=2.52e+06u as=4.2e+11p ps=2.84e+06u w=1e+06u l=150000u
X1 VPWR A2 a_319_297# VPB sky130_fd_pr__pfet_01v8_hvt ad=1.11e+12p pd=8.22e+06u as=7.6e+11p ps=5.52e+06u w=1e+06u l=150000u
X2 VGND B1 a_79_21# VNB sky130_fd_pr__nfet_01v8 ad=7.605e+11p pd=6.24e+06u as=4.355e+11p ps=3.94e+06u w=650000u l=150000u
X3 a_417_47# A2 a_319_47# VNB sky130_fd_pr__nfet_01v8 ad=2.405e+11p pd=2.04e+06u as=2.21e+11p ps=1.98e+06u w=650000u l=150000u
X4 a_79_21# A1 a_417_47# VNB sky130_fd_pr__nfet_01v8 ad=0p pd=0u as=0p ps=0u w=650000u l=150000u
X5 a_319_47# A3 VGND VNB sky130_fd_pr__nfet_01v8 ad=0p pd=0u as=0p ps=0u w=650000u l=150000u
X6 VPWR a_79_21# X VPB sky130_fd_pr__pfet_01v8_hvt ad=0p pd=0u as=2.7e+11p ps=2.54e+06u w=1e+06u l=150000u
X7 a_319_297# A1 VPWR VPB sky130_fd_pr__pfet_01v8_hvt ad=0p pd=0u as=0p ps=0u w=1e+06u l=150000u
X8 VGND a_79_21# X VNB sky130_fd_pr__nfet_01v8 ad=0p pd=0u as=1.755e+11p ps=1.84e+06u w=650000u l=150000u
X9 a_319_297# A3 VPWR VPB sky130_fd_pr__pfet_01v8_hvt ad=0p pd=0u as=0p ps=0u w=1e+06u l=150000u
X10 a_79_21# C1 VGND VNB sky130_fd_pr__nfet_01v8 ad=0p pd=0u as=0p ps=0u w=650000u l=150000u
X11 a_635_297# B1 a_319_297# VPB sky130_fd_pr__pfet_01v8_hvt ad=0p pd=0u as=0p ps=0u w=1e+06u l=150000u
X12 X a_79_21# VPWR VPB sky130_fd_pr__pfet_01v8_hvt ad=0p pd=0u as=0p ps=0u w=1e+06u l=150000u
X13 X a_79_21# VGND VNB sky130_fd_pr__nfet_01v8 ad=0p pd=0u as=0p ps=0u w=650000u l=150000u
.ends

.subckt sky130_fd_sc_hd__a2bb2o_2 A1_N A2_N B1 B2 VGND VPWR X VNB VPB
X0 VPWR a_82_21# X VPB sky130_fd_pr__pfet_01v8_hvt ad=8.098e+11p pd=7.22e+06u as=2.7e+11p ps=2.54e+06u w=1e+06u l=150000u
X1 a_646_47# B2 a_82_21# VNB sky130_fd_pr__nfet_01v8 ad=1.134e+11p pd=1.38e+06u as=1.134e+11p ps=1.38e+06u w=420000u l=150000u
X2 a_574_369# a_313_47# a_82_21# VPB sky130_fd_pr__pfet_01v8_hvt ad=3.616e+11p pd=3.69e+06u as=1.664e+11p ps=1.8e+06u w=640000u l=150000u
X3 a_574_369# B1 VPWR VPB sky130_fd_pr__pfet_01v8_hvt ad=0p pd=0u as=0p ps=0u w=640000u l=150000u
X4 VGND a_82_21# X VNB sky130_fd_pr__nfet_01v8 ad=8.0515e+11p pd=7.55e+06u as=1.755e+11p ps=1.84e+06u w=650000u l=150000u
X5 VPWR B2 a_574_369# VPB sky130_fd_pr__pfet_01v8_hvt ad=0p pd=0u as=0p ps=0u w=640000u l=150000u
X6 X a_82_21# VGND VNB sky130_fd_pr__nfet_01v8 ad=0p pd=0u as=0p ps=0u w=650000u l=150000u
X7 X a_82_21# VPWR VPB sky130_fd_pr__pfet_01v8_hvt ad=0p pd=0u as=0p ps=0u w=1e+06u l=150000u
X8 a_313_47# A2_N a_313_297# VPB sky130_fd_pr__pfet_01v8_hvt ad=1.696e+11p pd=1.81e+06u as=1.344e+11p ps=1.7e+06u w=640000u l=150000u
X9 a_313_47# A1_N VGND VNB sky130_fd_pr__nfet_01v8 ad=1.134e+11p pd=1.38e+06u as=0p ps=0u w=420000u l=150000u
X10 a_313_297# A1_N VPWR VPB sky130_fd_pr__pfet_01v8_hvt ad=0p pd=0u as=0p ps=0u w=640000u l=150000u
X11 VGND A2_N a_313_47# VNB sky130_fd_pr__nfet_01v8 ad=0p pd=0u as=0p ps=0u w=420000u l=150000u
X12 a_82_21# a_313_47# VGND VNB sky130_fd_pr__nfet_01v8 ad=0p pd=0u as=0p ps=0u w=420000u l=150000u
X13 VGND B1 a_646_47# VNB sky130_fd_pr__nfet_01v8 ad=0p pd=0u as=0p ps=0u w=420000u l=150000u
.ends

.subckt sky130_fd_sc_hd__einvp_2 A TE VGND VPWR Z VNB VPB
X0 VPWR a_27_47# a_215_309# VPB sky130_fd_pr__pfet_01v8_hvt ad=4.202e+11p pd=4.22e+06u as=8.249e+11p ps=7.57e+06u w=940000u l=150000u
X1 a_204_47# A Z VNB sky130_fd_pr__nfet_01v8 ad=5.135e+11p pd=5.48e+06u as=1.755e+11p ps=1.84e+06u w=650000u l=150000u
X2 VPWR TE a_27_47# VPB sky130_fd_pr__pfet_01v8_hvt ad=0p pd=0u as=1.664e+11p ps=1.8e+06u w=640000u l=150000u
X3 Z A a_204_47# VNB sky130_fd_pr__nfet_01v8 ad=0p pd=0u as=0p ps=0u w=650000u l=150000u
X4 a_215_309# A Z VPB sky130_fd_pr__pfet_01v8_hvt ad=0p pd=0u as=2.7e+11p ps=2.54e+06u w=1e+06u l=150000u
X5 Z A a_215_309# VPB sky130_fd_pr__pfet_01v8_hvt ad=0p pd=0u as=0p ps=0u w=1e+06u l=150000u
X6 a_204_47# TE VGND VNB sky130_fd_pr__nfet_01v8 ad=0p pd=0u as=3.63e+11p ps=3.77e+06u w=650000u l=150000u
X7 VGND TE a_204_47# VNB sky130_fd_pr__nfet_01v8 ad=0p pd=0u as=0p ps=0u w=650000u l=150000u
X8 a_215_309# a_27_47# VPWR VPB sky130_fd_pr__pfet_01v8_hvt ad=0p pd=0u as=0p ps=0u w=940000u l=150000u
X9 VGND TE a_27_47# VNB sky130_fd_pr__nfet_01v8 ad=0p pd=0u as=1.092e+11p ps=1.36e+06u w=420000u l=150000u
.ends

.subckt sky130_fd_sc_hd__einvn_8 A TE_B VGND VPWR Z VNB VPB
X0 a_204_309# A Z VPB sky130_fd_pr__pfet_01v8_hvt ad=2.3452e+12p pd=2.234e+07u as=1.08e+12p ps=1.016e+07u w=1e+06u l=150000u
X1 VGND a_27_47# a_215_47# VNB sky130_fd_pr__nfet_01v8 ad=8.71e+11p pd=9.18e+06u as=1.61525e+12p ps=1.667e+07u w=650000u l=150000u
X2 a_215_47# A Z VNB sky130_fd_pr__nfet_01v8 ad=0p pd=0u as=7.02e+11p ps=7.36e+06u w=650000u l=150000u
X3 Z A a_204_309# VPB sky130_fd_pr__pfet_01v8_hvt ad=0p pd=0u as=0p ps=0u w=1e+06u l=150000u
X4 VGND a_27_47# a_215_47# VNB sky130_fd_pr__nfet_01v8 ad=0p pd=0u as=0p ps=0u w=650000u l=150000u
X5 VGND a_27_47# a_215_47# VNB sky130_fd_pr__nfet_01v8 ad=0p pd=0u as=0p ps=0u w=650000u l=150000u
X6 a_204_309# TE_B VPWR VPB sky130_fd_pr__pfet_01v8_hvt ad=0p pd=0u as=1.3263e+12p ps=1.231e+07u w=940000u l=150000u
X7 a_204_309# A Z VPB sky130_fd_pr__pfet_01v8_hvt ad=0p pd=0u as=0p ps=0u w=1e+06u l=150000u
X8 VGND a_27_47# a_215_47# VNB sky130_fd_pr__nfet_01v8 ad=0p pd=0u as=0p ps=0u w=650000u l=150000u
X9 VPWR TE_B a_204_309# VPB sky130_fd_pr__pfet_01v8_hvt ad=0p pd=0u as=0p ps=0u w=940000u l=150000u
X10 Z A a_204_309# VPB sky130_fd_pr__pfet_01v8_hvt ad=0p pd=0u as=0p ps=0u w=1e+06u l=150000u
X11 a_204_309# TE_B VPWR VPB sky130_fd_pr__pfet_01v8_hvt ad=0p pd=0u as=0p ps=0u w=940000u l=150000u
X12 a_215_47# a_27_47# VGND VNB sky130_fd_pr__nfet_01v8 ad=0p pd=0u as=0p ps=0u w=650000u l=150000u
X13 Z A a_215_47# VNB sky130_fd_pr__nfet_01v8 ad=0p pd=0u as=0p ps=0u w=650000u l=150000u
X14 a_215_47# a_27_47# VGND VNB sky130_fd_pr__nfet_01v8 ad=0p pd=0u as=0p ps=0u w=650000u l=150000u
X15 a_215_47# a_27_47# VGND VNB sky130_fd_pr__nfet_01v8 ad=0p pd=0u as=0p ps=0u w=650000u l=150000u
X16 VPWR TE_B a_204_309# VPB sky130_fd_pr__pfet_01v8_hvt ad=0p pd=0u as=0p ps=0u w=940000u l=150000u
X17 a_215_47# A Z VNB sky130_fd_pr__nfet_01v8 ad=0p pd=0u as=0p ps=0u w=650000u l=150000u
X18 a_204_309# TE_B VPWR VPB sky130_fd_pr__pfet_01v8_hvt ad=0p pd=0u as=0p ps=0u w=940000u l=150000u
X19 a_215_47# A Z VNB sky130_fd_pr__nfet_01v8 ad=0p pd=0u as=0p ps=0u w=650000u l=150000u
X20 a_215_47# A Z VNB sky130_fd_pr__nfet_01v8 ad=0p pd=0u as=0p ps=0u w=650000u l=150000u
X21 a_204_309# A Z VPB sky130_fd_pr__pfet_01v8_hvt ad=0p pd=0u as=0p ps=0u w=1e+06u l=150000u
X22 VPWR TE_B a_204_309# VPB sky130_fd_pr__pfet_01v8_hvt ad=0p pd=0u as=0p ps=0u w=940000u l=150000u
X23 a_204_309# TE_B VPWR VPB sky130_fd_pr__pfet_01v8_hvt ad=0p pd=0u as=0p ps=0u w=940000u l=150000u
X24 Z A a_204_309# VPB sky130_fd_pr__pfet_01v8_hvt ad=0p pd=0u as=0p ps=0u w=1e+06u l=150000u
X25 Z A a_215_47# VNB sky130_fd_pr__nfet_01v8 ad=0p pd=0u as=0p ps=0u w=650000u l=150000u
X26 Z A a_204_309# VPB sky130_fd_pr__pfet_01v8_hvt ad=0p pd=0u as=0p ps=0u w=1e+06u l=150000u
X27 a_204_309# A Z VPB sky130_fd_pr__pfet_01v8_hvt ad=0p pd=0u as=0p ps=0u w=1e+06u l=150000u
X28 Z A a_215_47# VNB sky130_fd_pr__nfet_01v8 ad=0p pd=0u as=0p ps=0u w=650000u l=150000u
X29 VPWR TE_B a_204_309# VPB sky130_fd_pr__pfet_01v8_hvt ad=0p pd=0u as=0p ps=0u w=940000u l=150000u
X30 Z A a_215_47# VNB sky130_fd_pr__nfet_01v8 ad=0p pd=0u as=0p ps=0u w=650000u l=150000u
X31 a_215_47# a_27_47# VGND VNB sky130_fd_pr__nfet_01v8 ad=0p pd=0u as=0p ps=0u w=650000u l=150000u
X32 VPWR TE_B a_27_47# VPB sky130_fd_pr__pfet_01v8_hvt ad=0p pd=0u as=2.6e+11p ps=2.52e+06u w=1e+06u l=150000u
X33 VGND TE_B a_27_47# VNB sky130_fd_pr__nfet_01v8 ad=0p pd=0u as=1.69e+11p ps=1.82e+06u w=650000u l=150000u
.ends

.subckt sky130_fd_sc_hd__o311a_2 A1 A2 A3 B1 C1 VGND VPWR X VNB VPB
X0 X a_91_21# VPWR VPB sky130_fd_pr__pfet_01v8_hvt ad=2.7e+11p pd=2.54e+06u as=1.245e+12p ps=8.49e+06u w=1e+06u l=150000u
X1 a_91_21# C1 VPWR VPB sky130_fd_pr__pfet_01v8_hvt ad=5.35e+11p pd=5.07e+06u as=0p ps=0u w=1e+06u l=150000u
X2 a_360_47# A3 VGND VNB sky130_fd_pr__nfet_01v8 ad=4.6475e+11p pd=4.03e+06u as=8.8725e+11p ps=6.63e+06u w=650000u l=150000u
X3 VPWR B1 a_91_21# VPB sky130_fd_pr__pfet_01v8_hvt ad=0p pd=0u as=0p ps=0u w=1e+06u l=150000u
X4 a_360_297# A1 VPWR VPB sky130_fd_pr__pfet_01v8_hvt ad=3.5e+11p pd=2.7e+06u as=0p ps=0u w=1e+06u l=150000u
X5 VGND A2 a_360_47# VNB sky130_fd_pr__nfet_01v8 ad=0p pd=0u as=0p ps=0u w=650000u l=150000u
X6 a_360_47# A1 VGND VNB sky130_fd_pr__nfet_01v8 ad=0p pd=0u as=0p ps=0u w=650000u l=150000u
X7 VPWR a_91_21# X VPB sky130_fd_pr__pfet_01v8_hvt ad=0p pd=0u as=0p ps=0u w=1e+06u l=150000u
X8 VGND a_91_21# X VNB sky130_fd_pr__nfet_01v8 ad=0p pd=0u as=1.755e+11p ps=1.84e+06u w=650000u l=150000u
X9 X a_91_21# VGND VNB sky130_fd_pr__nfet_01v8 ad=0p pd=0u as=0p ps=0u w=650000u l=150000u
X10 a_677_47# B1 a_360_47# VNB sky130_fd_pr__nfet_01v8 ad=1.365e+11p pd=1.72e+06u as=0p ps=0u w=650000u l=150000u
X11 a_460_297# A2 a_360_297# VPB sky130_fd_pr__pfet_01v8_hvt ad=4.2e+11p pd=2.84e+06u as=0p ps=0u w=1e+06u l=150000u
X12 a_91_21# C1 a_677_47# VNB sky130_fd_pr__nfet_01v8 ad=1.69e+11p pd=1.82e+06u as=0p ps=0u w=650000u l=150000u
X13 a_91_21# A3 a_460_297# VPB sky130_fd_pr__pfet_01v8_hvt ad=0p pd=0u as=0p ps=0u w=1e+06u l=150000u
.ends

.subckt sky130_fd_sc_hd__or2_2 A B VGND VPWR X VNB VPB
X0 a_121_297# B a_39_297# VPB sky130_fd_pr__pfet_01v8_hvt ad=8.82e+10p pd=1.26e+06u as=1.092e+11p ps=1.36e+06u w=420000u l=150000u
X1 X a_39_297# VGND VNB sky130_fd_pr__nfet_01v8 ad=1.755e+11p pd=1.84e+06u as=4.917e+11p ps=5.19e+06u w=650000u l=150000u
X2 VPWR a_39_297# X VPB sky130_fd_pr__pfet_01v8_hvt ad=5.715e+11p pd=5.23e+06u as=2.7e+11p ps=2.54e+06u w=1e+06u l=150000u
X3 X a_39_297# VPWR VPB sky130_fd_pr__pfet_01v8_hvt ad=0p pd=0u as=0p ps=0u w=1e+06u l=150000u
X4 VGND a_39_297# X VNB sky130_fd_pr__nfet_01v8 ad=0p pd=0u as=0p ps=0u w=650000u l=150000u
X5 VPWR A a_121_297# VPB sky130_fd_pr__pfet_01v8_hvt ad=0p pd=0u as=0p ps=0u w=420000u l=150000u
X6 VGND A a_39_297# VNB sky130_fd_pr__nfet_01v8 ad=0p pd=0u as=1.134e+11p ps=1.38e+06u w=420000u l=150000u
X7 a_39_297# B VGND VNB sky130_fd_pr__nfet_01v8 ad=0p pd=0u as=0p ps=0u w=420000u l=150000u
.ends

.subckt sky130_fd_sc_hd__buf_2 A VGND VPWR X VNB VPB
X0 VPWR a_27_47# X VPB sky130_fd_pr__pfet_01v8_hvt ad=5.63e+11p pd=5.18e+06u as=2.7e+11p ps=2.54e+06u w=1e+06u l=150000u
X1 X a_27_47# VPWR VPB sky130_fd_pr__pfet_01v8_hvt ad=0p pd=0u as=0p ps=0u w=1e+06u l=150000u
X2 VPWR A a_27_47# VPB sky130_fd_pr__pfet_01v8_hvt ad=0p pd=0u as=1.664e+11p ps=1.8e+06u w=640000u l=150000u
X3 X a_27_47# VGND VNB sky130_fd_pr__nfet_01v8 ad=1.755e+11p pd=1.84e+06u as=3.6625e+11p ps=3.78e+06u w=650000u l=150000u
X4 VGND a_27_47# X VNB sky130_fd_pr__nfet_01v8 ad=0p pd=0u as=0p ps=0u w=650000u l=150000u
X5 VGND A a_27_47# VNB sky130_fd_pr__nfet_01v8 ad=0p pd=0u as=1.092e+11p ps=1.36e+06u w=420000u l=150000u
.ends

.subckt sky130_fd_sc_hd__einvn_4 A TE_B VGND VPWR Z VNB VPB
X0 VGND a_27_47# a_215_47# VNB sky130_fd_pr__nfet_01v8 ad=5.2e+11p pd=5.5e+06u as=9.1325e+11p ps=9.31e+06u w=650000u l=150000u
X1 a_204_309# A Z VPB sky130_fd_pr__pfet_01v8_hvt ad=1.2976e+12p pd=1.242e+07u as=5.4e+11p ps=5.08e+06u w=1e+06u l=150000u
X2 VGND a_27_47# a_215_47# VNB sky130_fd_pr__nfet_01v8 ad=0p pd=0u as=0p ps=0u w=650000u l=150000u
X3 VPWR TE_B a_204_309# VPB sky130_fd_pr__pfet_01v8_hvt ad=8.187e+11p pd=7.47e+06u as=0p ps=0u w=940000u l=150000u
X4 Z A a_215_47# VNB sky130_fd_pr__nfet_01v8 ad=3.51e+11p pd=3.68e+06u as=0p ps=0u w=650000u l=150000u
X5 a_204_309# TE_B VPWR VPB sky130_fd_pr__pfet_01v8_hvt ad=0p pd=0u as=0p ps=0u w=940000u l=150000u
X6 a_215_47# a_27_47# VGND VNB sky130_fd_pr__nfet_01v8 ad=0p pd=0u as=0p ps=0u w=650000u l=150000u
X7 Z A a_215_47# VNB sky130_fd_pr__nfet_01v8 ad=0p pd=0u as=0p ps=0u w=650000u l=150000u
X8 Z A a_204_309# VPB sky130_fd_pr__pfet_01v8_hvt ad=0p pd=0u as=0p ps=0u w=1e+06u l=150000u
X9 VPWR TE_B a_204_309# VPB sky130_fd_pr__pfet_01v8_hvt ad=0p pd=0u as=0p ps=0u w=940000u l=150000u
X10 a_204_309# TE_B VPWR VPB sky130_fd_pr__pfet_01v8_hvt ad=0p pd=0u as=0p ps=0u w=940000u l=150000u
X11 a_215_47# A Z VNB sky130_fd_pr__nfet_01v8 ad=0p pd=0u as=0p ps=0u w=650000u l=150000u
X12 a_215_47# A Z VNB sky130_fd_pr__nfet_01v8 ad=0p pd=0u as=0p ps=0u w=650000u l=150000u
X13 a_215_47# a_27_47# VGND VNB sky130_fd_pr__nfet_01v8 ad=0p pd=0u as=0p ps=0u w=650000u l=150000u
X14 a_204_309# A Z VPB sky130_fd_pr__pfet_01v8_hvt ad=0p pd=0u as=0p ps=0u w=1e+06u l=150000u
X15 VPWR TE_B a_27_47# VPB sky130_fd_pr__pfet_01v8_hvt ad=0p pd=0u as=2.6e+11p ps=2.52e+06u w=1e+06u l=150000u
X16 Z A a_204_309# VPB sky130_fd_pr__pfet_01v8_hvt ad=0p pd=0u as=0p ps=0u w=1e+06u l=150000u
X17 VGND TE_B a_27_47# VNB sky130_fd_pr__nfet_01v8 ad=0p pd=0u as=1.69e+11p ps=1.82e+06u w=650000u l=150000u
.ends

.subckt sky130_fd_sc_hd__nand2_2 A B VGND VPWR Y VNB VPB
X0 VPWR A Y VPB sky130_fd_pr__pfet_01v8_hvt ad=7.9e+11p pd=7.58e+06u as=5.4e+11p ps=5.08e+06u w=1e+06u l=150000u
X1 Y A VPWR VPB sky130_fd_pr__pfet_01v8_hvt ad=0p pd=0u as=0p ps=0u w=1e+06u l=150000u
X2 VPWR B Y VPB sky130_fd_pr__pfet_01v8_hvt ad=0p pd=0u as=0p ps=0u w=1e+06u l=150000u
X3 a_27_47# B VGND VNB sky130_fd_pr__nfet_01v8 ad=5.135e+11p pd=5.48e+06u as=1.755e+11p ps=1.84e+06u w=650000u l=150000u
X4 a_27_47# A Y VNB sky130_fd_pr__nfet_01v8 ad=0p pd=0u as=1.755e+11p ps=1.84e+06u w=650000u l=150000u
X5 Y A a_27_47# VNB sky130_fd_pr__nfet_01v8 ad=0p pd=0u as=0p ps=0u w=650000u l=150000u
X6 Y B VPWR VPB sky130_fd_pr__pfet_01v8_hvt ad=0p pd=0u as=0p ps=0u w=1e+06u l=150000u
X7 VGND B a_27_47# VNB sky130_fd_pr__nfet_01v8 ad=0p pd=0u as=0p ps=0u w=650000u l=150000u
.ends

.subckt sky130_fd_sc_hd__o221a_2 A1 A2 B1 B2 C1 VGND VPWR X VNB VPB
X0 VPWR a_38_47# X VPB sky130_fd_pr__pfet_01v8_hvt ad=9.2e+11p pd=7.84e+06u as=2.7e+11p ps=2.54e+06u w=1e+06u l=150000u
X1 VPWR A1 a_497_297# VPB sky130_fd_pr__pfet_01v8_hvt ad=0p pd=0u as=2.1e+11p ps=2.42e+06u w=1e+06u l=150000u
X2 X a_38_47# VPWR VPB sky130_fd_pr__pfet_01v8_hvt ad=0p pd=0u as=0p ps=0u w=1e+06u l=150000u
X3 a_141_47# B2 a_225_47# VNB sky130_fd_pr__nfet_01v8 ad=3.445e+11p pd=3.66e+06u as=3.51e+11p ps=3.68e+06u w=650000u l=150000u
X4 a_497_297# A2 a_38_47# VPB sky130_fd_pr__pfet_01v8_hvt ad=0p pd=0u as=1.1e+12p ps=6.2e+06u w=1e+06u l=150000u
X5 VGND A1 a_225_47# VNB sky130_fd_pr__nfet_01v8 ad=5.135e+11p pd=5.48e+06u as=0p ps=0u w=650000u l=150000u
X6 VPWR C1 a_38_47# VPB sky130_fd_pr__pfet_01v8_hvt ad=0p pd=0u as=0p ps=0u w=1e+06u l=150000u
X7 a_237_297# B1 VPWR VPB sky130_fd_pr__pfet_01v8_hvt ad=2.25e+11p pd=2.45e+06u as=0p ps=0u w=1e+06u l=150000u
X8 a_38_47# B2 a_237_297# VPB sky130_fd_pr__pfet_01v8_hvt ad=0p pd=0u as=0p ps=0u w=1e+06u l=150000u
X9 a_225_47# A2 VGND VNB sky130_fd_pr__nfet_01v8 ad=0p pd=0u as=0p ps=0u w=650000u l=150000u
X10 X a_38_47# VGND VNB sky130_fd_pr__nfet_01v8 ad=1.755e+11p pd=1.84e+06u as=0p ps=0u w=650000u l=150000u
X11 a_141_47# C1 a_38_47# VNB sky130_fd_pr__nfet_01v8 ad=0p pd=0u as=2.3725e+11p ps=2.03e+06u w=650000u l=150000u
X12 VGND a_38_47# X VNB sky130_fd_pr__nfet_01v8 ad=0p pd=0u as=0p ps=0u w=650000u l=150000u
X13 a_225_47# B1 a_141_47# VNB sky130_fd_pr__nfet_01v8 ad=0p pd=0u as=0p ps=0u w=650000u l=150000u
.ends

.subckt sky130_fd_sc_hd__buf_1 A VGND VPWR X VNB VPB
X0 VPWR A a_27_47# VPB sky130_fd_pr__pfet_01v8_hvt ad=2.291e+11p pd=2.16e+06u as=2.054e+11p ps=2.1e+06u w=790000u l=150000u
X1 X a_27_47# VGND VNB sky130_fd_pr__nfet_01v8 ad=1.352e+11p pd=1.56e+06u as=1.508e+11p ps=1.62e+06u w=520000u l=150000u
X2 X a_27_47# VPWR VPB sky130_fd_pr__pfet_01v8_hvt ad=2.054e+11p pd=2.1e+06u as=0p ps=0u w=790000u l=150000u
X3 VGND A a_27_47# VNB sky130_fd_pr__nfet_01v8 ad=0p pd=0u as=1.352e+11p ps=1.56e+06u w=520000u l=150000u
.ends

.subckt sky130_fd_sc_hd__decap_6 VGND VPWR VNB VPB
X0 VPWR VGND VPWR VPB sky130_fd_pr__pfet_01v8_hvt ad=4.524e+11p pd=4.52e+06u as=0p ps=0u w=870000u l=1.97e+06u
X1 VGND VPWR VGND VNB sky130_fd_pr__nfet_01v8 ad=2.86e+11p pd=3.24e+06u as=0p ps=0u w=550000u l=1.97e+06u
.ends

.subckt sky130_fd_sc_hd__clkbuf_2 A VGND VPWR X VNB VPB
X0 VPWR A a_27_47# VPB sky130_fd_pr__pfet_01v8_hvt ad=5.85e+11p pd=5.17e+06u as=2.65e+11p ps=2.53e+06u w=1e+06u l=150000u
X1 VPWR a_27_47# X VPB sky130_fd_pr__pfet_01v8_hvt ad=0p pd=0u as=2.7e+11p ps=2.54e+06u w=1e+06u l=150000u
X2 VGND A a_27_47# VNB sky130_fd_pr__nfet_01v8 ad=2.457e+11p pd=2.85e+06u as=1.113e+11p ps=1.37e+06u w=420000u l=150000u
X3 X a_27_47# VPWR VPB sky130_fd_pr__pfet_01v8_hvt ad=0p pd=0u as=0p ps=0u w=1e+06u l=150000u
X4 X a_27_47# VGND VNB sky130_fd_pr__nfet_01v8 ad=1.134e+11p pd=1.38e+06u as=0p ps=0u w=420000u l=150000u
X5 VGND a_27_47# X VNB sky130_fd_pr__nfet_01v8 ad=0p pd=0u as=0p ps=0u w=420000u l=150000u
.ends

.subckt sky130_fd_sc_hd__a31o_2 A1 A2 A3 B1 VGND VPWR X VNB VPB
X0 VPWR A2 a_277_297# VPB sky130_fd_pr__pfet_01v8_hvt ad=8.6e+11p pd=7.72e+06u as=6e+11p ps=5.2e+06u w=1e+06u l=150000u
X1 a_277_297# A1 VPWR VPB sky130_fd_pr__pfet_01v8_hvt ad=0p pd=0u as=0p ps=0u w=1e+06u l=150000u
X2 a_79_21# B1 a_277_297# VPB sky130_fd_pr__pfet_01v8_hvt ad=3.2e+11p pd=2.64e+06u as=0p ps=0u w=1e+06u l=150000u
X3 a_277_297# A3 VPWR VPB sky130_fd_pr__pfet_01v8_hvt ad=0p pd=0u as=0p ps=0u w=1e+06u l=150000u
X4 VPWR a_79_21# X VPB sky130_fd_pr__pfet_01v8_hvt ad=0p pd=0u as=2.7e+11p ps=2.54e+06u w=1e+06u l=150000u
X5 VGND a_79_21# X VNB sky130_fd_pr__nfet_01v8 ad=5.135e+11p pd=5.48e+06u as=1.755e+11p ps=1.84e+06u w=650000u l=150000u
X6 a_361_47# A2 a_277_47# VNB sky130_fd_pr__nfet_01v8 ad=2.145e+11p pd=1.96e+06u as=1.755e+11p ps=1.84e+06u w=650000u l=150000u
X7 a_277_47# A3 VGND VNB sky130_fd_pr__nfet_01v8 ad=0p pd=0u as=0p ps=0u w=650000u l=150000u
X8 VGND B1 a_79_21# VNB sky130_fd_pr__nfet_01v8 ad=0p pd=0u as=2.535e+11p ps=2.08e+06u w=650000u l=150000u
X9 a_79_21# A1 a_361_47# VNB sky130_fd_pr__nfet_01v8 ad=0p pd=0u as=0p ps=0u w=650000u l=150000u
X10 X a_79_21# VPWR VPB sky130_fd_pr__pfet_01v8_hvt ad=0p pd=0u as=0p ps=0u w=1e+06u l=150000u
X11 X a_79_21# VGND VNB sky130_fd_pr__nfet_01v8 ad=0p pd=0u as=0p ps=0u w=650000u l=150000u
.ends

.subckt sky130_fd_sc_hd__a32o_2 A1 A2 A3 B1 B2 VGND VPWR X VNB VPB
X0 VPWR A3 a_299_297# VPB sky130_fd_pr__pfet_01v8_hvt ad=9.6e+11p pd=7.92e+06u as=8e+11p ps=7.6e+06u w=1e+06u l=150000u
X1 a_299_297# A2 VPWR VPB sky130_fd_pr__pfet_01v8_hvt ad=0p pd=0u as=0p ps=0u w=1e+06u l=150000u
X2 a_352_47# B2 VGND VNB sky130_fd_pr__nfet_01v8 ad=2.3075e+11p pd=2.01e+06u as=7.5725e+11p ps=6.23e+06u w=650000u l=150000u
X3 a_549_47# A1 a_21_199# VNB sky130_fd_pr__nfet_01v8 ad=2.795e+11p pd=2.16e+06u as=2.145e+11p ps=1.96e+06u w=650000u l=150000u
X4 X a_21_199# VPWR VPB sky130_fd_pr__pfet_01v8_hvt ad=5.2e+11p pd=5.04e+06u as=0p ps=0u w=1e+06u l=150000u
X5 VGND a_21_199# X VNB sky130_fd_pr__nfet_01v8 ad=0p pd=0u as=1.755e+11p ps=1.84e+06u w=650000u l=150000u
X6 a_665_47# A2 a_549_47# VNB sky130_fd_pr__nfet_01v8 ad=1.755e+11p pd=1.84e+06u as=0p ps=0u w=650000u l=150000u
X7 VPWR A1 a_299_297# VPB sky130_fd_pr__pfet_01v8_hvt ad=0p pd=0u as=0p ps=0u w=1e+06u l=150000u
X8 a_299_297# B1 a_21_199# VPB sky130_fd_pr__pfet_01v8_hvt ad=0p pd=0u as=2.7e+11p ps=2.54e+06u w=1e+06u l=150000u
X9 a_21_199# B2 a_299_297# VPB sky130_fd_pr__pfet_01v8_hvt ad=0p pd=0u as=0p ps=0u w=1e+06u l=150000u
X10 VGND A3 a_665_47# VNB sky130_fd_pr__nfet_01v8 ad=0p pd=0u as=0p ps=0u w=650000u l=150000u
X11 VPWR a_21_199# X VPB sky130_fd_pr__pfet_01v8_hvt ad=0p pd=0u as=0p ps=0u w=1e+06u l=150000u
X12 X a_21_199# VGND VNB sky130_fd_pr__nfet_01v8 ad=0p pd=0u as=0p ps=0u w=650000u l=150000u
X13 a_21_199# B1 a_352_47# VNB sky130_fd_pr__nfet_01v8 ad=0p pd=0u as=0p ps=0u w=650000u l=150000u
.ends

.subckt sky130_fd_sc_hd__a22o_2 A1 A2 B1 B2 VGND VPWR X VNB VPB
X0 VPWR a_27_297# X VPB sky130_fd_pr__pfet_01v8_hvt ad=8.45e+11p pd=7.69e+06u as=2.7e+11p ps=2.54e+06u w=1e+06u l=150000u
X1 VGND A2 a_381_47# VNB sky130_fd_pr__nfet_01v8 ad=5.4925e+11p pd=5.59e+06u as=2.145e+11p ps=1.96e+06u w=650000u l=150000u
X2 X a_27_297# VGND VNB sky130_fd_pr__nfet_01v8 ad=1.755e+11p pd=1.84e+06u as=0p ps=0u w=650000u l=150000u
X3 X a_27_297# VPWR VPB sky130_fd_pr__pfet_01v8_hvt ad=0p pd=0u as=0p ps=0u w=1e+06u l=150000u
X4 a_27_297# B1 a_109_47# VNB sky130_fd_pr__nfet_01v8 ad=3.38e+11p pd=3.64e+06u as=1.495e+11p ps=1.76e+06u w=650000u l=150000u
X5 a_27_297# B1 a_109_297# VPB sky130_fd_pr__pfet_01v8_hvt ad=5.2e+11p pd=5.04e+06u as=6e+11p ps=5.2e+06u w=1e+06u l=150000u
X6 VGND a_27_297# X VNB sky130_fd_pr__nfet_01v8 ad=0p pd=0u as=0p ps=0u w=650000u l=150000u
X7 a_109_297# A1 VPWR VPB sky130_fd_pr__pfet_01v8_hvt ad=0p pd=0u as=0p ps=0u w=1e+06u l=150000u
X8 VPWR A2 a_109_297# VPB sky130_fd_pr__pfet_01v8_hvt ad=0p pd=0u as=0p ps=0u w=1e+06u l=150000u
X9 a_381_47# A1 a_27_297# VNB sky130_fd_pr__nfet_01v8 ad=0p pd=0u as=0p ps=0u w=650000u l=150000u
X10 a_109_297# B2 a_27_297# VPB sky130_fd_pr__pfet_01v8_hvt ad=0p pd=0u as=0p ps=0u w=1e+06u l=150000u
X11 a_109_47# B2 VGND VNB sky130_fd_pr__nfet_01v8 ad=0p pd=0u as=0p ps=0u w=650000u l=150000u
.ends

.subckt sky130_fd_sc_hd__clkbuf_1 A VGND VPWR X VNB VPB
X0 VPWR a_75_212# X VPB sky130_fd_pr__pfet_01v8_hvt ad=2.291e+11p pd=2.16e+06u as=2.054e+11p ps=2.1e+06u w=790000u l=150000u
X1 a_75_212# A VGND VNB sky130_fd_pr__nfet_01v8 ad=1.352e+11p pd=1.56e+06u as=1.508e+11p ps=1.62e+06u w=520000u l=150000u
X2 a_75_212# A VPWR VPB sky130_fd_pr__pfet_01v8_hvt ad=2.054e+11p pd=2.1e+06u as=0p ps=0u w=790000u l=150000u
X3 VGND a_75_212# X VNB sky130_fd_pr__nfet_01v8 ad=0p pd=0u as=1.352e+11p ps=1.56e+06u w=520000u l=150000u
.ends

.subckt sky130_fd_sc_hd__o21ai_2 A1 A2 B1 VGND VPWR Y VNB VPB
X0 VGND A2 a_29_47# VNB sky130_fd_pr__nfet_01v8 ad=4.355e+11p pd=3.94e+06u as=7.085e+11p ps=7.38e+06u w=650000u l=150000u
X1 Y B1 a_29_47# VNB sky130_fd_pr__nfet_01v8 ad=1.82e+11p pd=1.86e+06u as=0p ps=0u w=650000u l=150000u
X2 VPWR B1 Y VPB sky130_fd_pr__pfet_01v8_hvt ad=8.5e+11p pd=7.7e+06u as=5.6e+11p ps=5.12e+06u w=1e+06u l=150000u
X3 VPWR A1 a_112_297# VPB sky130_fd_pr__pfet_01v8_hvt ad=0p pd=0u as=6.3e+11p ps=5.26e+06u w=1e+06u l=150000u
X4 a_29_47# A2 VGND VNB sky130_fd_pr__nfet_01v8 ad=0p pd=0u as=0p ps=0u w=650000u l=150000u
X5 Y A2 a_112_297# VPB sky130_fd_pr__pfet_01v8_hvt ad=0p pd=0u as=0p ps=0u w=1e+06u l=150000u
X6 VGND A1 a_29_47# VNB sky130_fd_pr__nfet_01v8 ad=0p pd=0u as=0p ps=0u w=650000u l=150000u
X7 a_112_297# A1 VPWR VPB sky130_fd_pr__pfet_01v8_hvt ad=0p pd=0u as=0p ps=0u w=1e+06u l=150000u
X8 a_112_297# A2 Y VPB sky130_fd_pr__pfet_01v8_hvt ad=0p pd=0u as=0p ps=0u w=1e+06u l=150000u
X9 a_29_47# B1 Y VNB sky130_fd_pr__nfet_01v8 ad=0p pd=0u as=0p ps=0u w=650000u l=150000u
X10 Y B1 VPWR VPB sky130_fd_pr__pfet_01v8_hvt ad=0p pd=0u as=0p ps=0u w=1e+06u l=150000u
X11 a_29_47# A1 VGND VNB sky130_fd_pr__nfet_01v8 ad=0p pd=0u as=0p ps=0u w=650000u l=150000u
.ends

.subckt sky130_fd_sc_hd__nor2_2 A B VGND VPWR Y VNB VPB
X0 Y B a_27_297# VPB sky130_fd_pr__pfet_01v8_hvt ad=2.7e+11p pd=2.54e+06u as=8.1e+11p ps=7.62e+06u w=1e+06u l=150000u